data_image0
_chemical_formula_structural       Al11O18Al11O18Al11O18Al11O18Al11O18Al11O18Al11O18Al11O18Al11O18Al11O18Al11O18Al11O18Al11O18Al11O18Al11O18Al11O18Al11O18Al11O18Al11O18Al11O18Al11O18Al11O18Al11O18Al11O18Al11O18Al11O18Al11O18Al11O18Al11O18Al11O18
_chemical_formula_sum              "Al330 O540"
_cell_length_a       25
_cell_length_b       25
_cell_length_c       25
_cell_angle_alpha    90
_cell_angle_beta     90
_cell_angle_gamma    90

_space_group_name_H-M_alt    "P 1"
_space_group_IT_number       1

loop_
  _space_group_symop_operation_xyz
  'x, y, z'

loop_
  _atom_site_type_symbol
  _atom_site_label
  _atom_site_symmetry_multiplicity
  _atom_site_fract_x
  _atom_site_fract_y
  _atom_site_fract_z
  _atom_site_occupancy
  Al  Al1       1.0  0.89228  0.08614  0.16756  1.0000
  Al  Al2       1.0  0.52282  0.08614  0.16756  1.0000
  Al  Al3       1.0  0.78514  0.08614  0.16756  1.0000
  Al  Al4       1.0  0.62996  0.08614  0.16756  1.0000
  Al  Al5       1.0  0.71740  0.14162  0.26366  1.0000
  Al  Al6       1.0  0.87258  0.14162  0.26366  1.0000
  Al  Al7       1.0  0.61026  0.14162  0.26366  1.0000
  Al  Al8       1.0  0.54250  0.19710  0.16758  1.0000
  Al  Al9       1.0  0.69770  0.19710  0.16758  1.0000
  Al  Al10      1.0  0.96002  0.19710  0.16758  1.0000
  Al  Al11      1.0  0.80484  0.19710  0.16758  1.0000
  O   O1        1.0  0.57638  0.13710  0.13814  1.0000
  O   O2        1.0  0.83872  0.20162  0.10088  1.0000
  O   O3        1.0  0.57638  0.20162  0.23424  1.0000
  O   O4        1.0  0.83872  0.13710  0.19700  1.0000
  O   O5        1.0  0.57638  0.08614  0.22642  1.0000
  O   O6        1.0  0.83872  0.08614  0.30092  1.0000
  O   O7        1.0  0.92616  0.19258  0.23424  1.0000
  O   O8        1.0  0.66382  0.09066  0.29308  1.0000
  O   O9        1.0  0.92616  0.09066  0.23424  1.0000
  O   O10       1.0  0.66382  0.19258  0.29308  1.0000
  O   O11       1.0  0.92616  0.14162  0.32250  1.0000
  O   O12       1.0  0.66382  0.14162  0.20482  1.0000
  O   O13       1.0  0.75126  0.24806  0.13816  1.0000
  O   O14       1.0  0.48894  0.14614  0.19700  1.0000
  O   O15       1.0  0.75126  0.14614  0.13816  1.0000
  O   O16       1.0  0.48894  0.24806  0.19700  1.0000
  O   O17       1.0  0.75126  0.19710  0.22642  1.0000
  O   O18       1.0  0.48894  0.19710  0.10874  1.0000
  Al  Al12      1.0  0.89228  0.25260  0.07146  1.0000
  Al  Al13      1.0  0.52282  0.25260  0.07146  1.0000
  Al  Al14      1.0  0.78514  0.25260  0.07146  1.0000
  Al  Al15      1.0  0.62996  0.25260  0.07146  1.0000
  Al  Al16      1.0  0.71740  0.30808  0.16756  1.0000
  Al  Al17      1.0  0.87258  0.30808  0.16756  1.0000
  Al  Al18      1.0  0.61026  0.30808  0.16756  1.0000
  Al  Al19      1.0  0.54250  0.36354  0.07148  1.0000
  Al  Al20      1.0  0.69770  0.36354  0.07148  1.0000
  Al  Al21      1.0  0.96002  0.36354  0.07148  1.0000
  Al  Al22      1.0  0.80484  0.36354  0.07148  1.0000
  O   O19       1.0  0.57638  0.30356  0.04204  1.0000
  O   O20       1.0  0.83872  0.36808  0.00478  1.0000
  O   O21       1.0  0.57638  0.36808  0.13814  1.0000
  O   O22       1.0  0.83872  0.30356  0.10090  1.0000
  O   O23       1.0  0.57638  0.25260  0.13032  1.0000
  O   O24       1.0  0.83872  0.25260  0.20482  1.0000
  O   O25       1.0  0.92616  0.35902  0.13814  1.0000
  O   O26       1.0  0.66382  0.25712  0.19698  1.0000
  O   O27       1.0  0.92616  0.25712  0.13814  1.0000
  O   O28       1.0  0.66382  0.35902  0.19698  1.0000
  O   O29       1.0  0.92616  0.30808  0.22640  1.0000
  O   O30       1.0  0.66382  0.30808  0.10872  1.0000
  O   O31       1.0  0.75126  0.41450  0.04206  1.0000
  O   O32       1.0  0.48894  0.31260  0.10090  1.0000
  O   O33       1.0  0.75126  0.31260  0.04206  1.0000
  O   O34       1.0  0.48894  0.41450  0.10090  1.0000
  O   O35       1.0  0.75126  0.36354  0.13032  1.0000
  O   O36       1.0  0.48894  0.36354  0.01264  1.0000
  Al  Al23      1.0  0.89228  0.41904  0.97536  1.0000
  Al  Al24      1.0  0.52282  0.41904  0.97536  1.0000
  Al  Al25      1.0  0.78514  0.41904  0.97536  1.0000
  Al  Al26      1.0  0.62996  0.41904  0.97536  1.0000
  Al  Al27      1.0  0.71740  0.47452  0.07146  1.0000
  Al  Al28      1.0  0.87258  0.47452  0.07146  1.0000
  Al  Al29      1.0  0.61026  0.47452  0.07146  1.0000
  Al  Al30      1.0  0.54250  0.53000  0.97538  1.0000
  Al  Al31      1.0  0.69770  0.53000  0.97538  1.0000
  Al  Al32      1.0  0.96002  0.53000  0.97538  1.0000
  Al  Al33      1.0  0.80484  0.53000  0.97538  1.0000
  O   O37       1.0  0.57638  0.47000  0.94594  1.0000
  O   O38       1.0  0.83872  0.53454  0.90868  1.0000
  O   O39       1.0  0.57638  0.53454  0.04204  1.0000
  O   O40       1.0  0.83872  0.47000  0.00480  1.0000
  O   O41       1.0  0.57638  0.41904  0.03422  1.0000
  O   O42       1.0  0.83872  0.41904  0.10872  1.0000
  O   O43       1.0  0.92616  0.52548  0.04204  1.0000
  O   O44       1.0  0.66382  0.42356  0.10088  1.0000
  O   O45       1.0  0.92616  0.42356  0.04204  1.0000
  O   O46       1.0  0.66382  0.52548  0.10088  1.0000
  O   O47       1.0  0.92616  0.47452  0.13030  1.0000
  O   O48       1.0  0.66382  0.47452  0.01262  1.0000
  O   O49       1.0  0.75126  0.58096  0.94596  1.0000
  O   O50       1.0  0.48894  0.47904  0.00480  1.0000
  O   O51       1.0  0.75126  0.47904  0.94596  1.0000
  O   O52       1.0  0.48894  0.58096  0.00480  1.0000
  O   O53       1.0  0.75126  0.53000  0.03422  1.0000
  O   O54       1.0  0.48894  0.53000  0.91654  1.0000
  Al  Al34      1.0  0.89228  0.58550  0.87926  1.0000
  Al  Al35      1.0  0.52282  0.58550  0.87926  1.0000
  Al  Al36      1.0  0.78514  0.58550  0.87926  1.0000
  Al  Al37      1.0  0.62996  0.58550  0.87926  1.0000
  Al  Al38      1.0  0.71740  0.64098  0.97536  1.0000
  Al  Al39      1.0  0.87258  0.64098  0.97536  1.0000
  Al  Al40      1.0  0.61026  0.64098  0.97536  1.0000
  Al  Al41      1.0  0.54250  0.69644  0.87928  1.0000
  Al  Al42      1.0  0.69770  0.69644  0.87928  1.0000
  Al  Al43      1.0  0.96002  0.69644  0.87928  1.0000
  Al  Al44      1.0  0.80484  0.69644  0.87928  1.0000
  O   O55       1.0  0.57638  0.63646  0.84984  1.0000
  O   O56       1.0  0.83872  0.70098  0.81258  1.0000
  O   O57       1.0  0.57638  0.70098  0.94594  1.0000
  O   O58       1.0  0.83872  0.63646  0.90870  1.0000
  O   O59       1.0  0.57638  0.58550  0.93812  1.0000
  O   O60       1.0  0.83872  0.58550  0.01262  1.0000
  O   O61       1.0  0.92616  0.69192  0.94594  1.0000
  O   O62       1.0  0.66382  0.59002  0.00478  1.0000
  O   O63       1.0  0.92616  0.59002  0.94594  1.0000
  O   O64       1.0  0.66382  0.69192  0.00478  1.0000
  O   O65       1.0  0.92616  0.64098  0.03420  1.0000
  O   O66       1.0  0.66382  0.64098  0.91652  1.0000
  O   O67       1.0  0.75126  0.74740  0.84986  1.0000
  O   O68       1.0  0.48894  0.64550  0.90870  1.0000
  O   O69       1.0  0.75126  0.64550  0.84986  1.0000
  O   O70       1.0  0.48894  0.74740  0.90870  1.0000
  O   O71       1.0  0.75126  0.69644  0.93812  1.0000
  O   O72       1.0  0.48894  0.69644  0.82044  1.0000
  Al  Al45      1.0  0.89228  0.75194  0.78316  1.0000
  Al  Al46      1.0  0.52282  0.75194  0.78316  1.0000
  Al  Al47      1.0  0.78514  0.75194  0.78316  1.0000
  Al  Al48      1.0  0.62996  0.75194  0.78316  1.0000
  Al  Al49      1.0  0.71740  0.80742  0.87926  1.0000
  Al  Al50      1.0  0.87258  0.80742  0.87926  1.0000
  Al  Al51      1.0  0.61026  0.80742  0.87926  1.0000
  Al  Al52      1.0  0.54250  0.86290  0.78318  1.0000
  Al  Al53      1.0  0.69770  0.86290  0.78318  1.0000
  Al  Al54      1.0  0.96002  0.86290  0.78318  1.0000
  Al  Al55      1.0  0.80484  0.86290  0.78318  1.0000
  O   O73       1.0  0.57638  0.80290  0.75374  1.0000
  O   O74       1.0  0.83872  0.86744  0.71648  1.0000
  O   O75       1.0  0.57638  0.86744  0.84984  1.0000
  O   O76       1.0  0.83872  0.80290  0.81260  1.0000
  O   O77       1.0  0.57638  0.75194  0.84202  1.0000
  O   O78       1.0  0.83872  0.75194  0.91652  1.0000
  O   O79       1.0  0.92616  0.85838  0.84984  1.0000
  O   O80       1.0  0.66382  0.75646  0.90868  1.0000
  O   O81       1.0  0.92616  0.75646  0.84984  1.0000
  O   O82       1.0  0.66382  0.85838  0.90868  1.0000
  O   O83       1.0  0.92616  0.80742  0.93810  1.0000
  O   O84       1.0  0.66382  0.80742  0.82042  1.0000
  O   O85       1.0  0.75126  0.91386  0.75376  1.0000
  O   O86       1.0  0.48894  0.81194  0.81260  1.0000
  O   O87       1.0  0.75126  0.81194  0.75376  1.0000
  O   O88       1.0  0.48894  0.91386  0.81260  1.0000
  O   O89       1.0  0.75126  0.86290  0.84202  1.0000
  O   O90       1.0  0.48894  0.86290  0.72434  1.0000
  Al  Al56      1.0  0.89228  0.08614  0.35978  1.0000
  Al  Al57      1.0  0.52282  0.08614  0.35978  1.0000
  Al  Al58      1.0  0.78514  0.08614  0.35978  1.0000
  Al  Al59      1.0  0.62996  0.08614  0.35978  1.0000
  Al  Al60      1.0  0.71740  0.14162  0.45586  1.0000
  Al  Al61      1.0  0.87258  0.14162  0.45586  1.0000
  Al  Al62      1.0  0.61026  0.14162  0.45586  1.0000
  Al  Al63      1.0  0.54250  0.19710  0.35978  1.0000
  Al  Al64      1.0  0.69770  0.19710  0.35978  1.0000
  Al  Al65      1.0  0.96002  0.19710  0.35978  1.0000
  Al  Al66      1.0  0.80484  0.19710  0.35978  1.0000
  O   O91       1.0  0.57638  0.13710  0.33036  1.0000
  O   O92       1.0  0.83872  0.20162  0.29310  1.0000
  O   O93       1.0  0.57638  0.20162  0.42646  1.0000
  O   O94       1.0  0.83872  0.13710  0.38920  1.0000
  O   O95       1.0  0.57638  0.08614  0.41862  1.0000
  O   O96       1.0  0.83872  0.08614  0.49314  1.0000
  O   O97       1.0  0.92616  0.19258  0.42644  1.0000
  O   O98       1.0  0.66382  0.09066  0.48528  1.0000
  O   O99       1.0  0.92616  0.09066  0.42644  1.0000
  O   O100      1.0  0.66382  0.19258  0.48528  1.0000
  O   O101      1.0  0.92616  0.14162  0.51470  1.0000
  O   O102      1.0  0.66382  0.14162  0.39702  1.0000
  O   O103      1.0  0.75126  0.24806  0.33036  1.0000
  O   O104      1.0  0.48894  0.14614  0.38920  1.0000
  O   O105      1.0  0.75126  0.14614  0.33036  1.0000
  O   O106      1.0  0.48894  0.24806  0.38920  1.0000
  O   O107      1.0  0.75126  0.19710  0.41862  1.0000
  O   O108      1.0  0.48894  0.19710  0.30094  1.0000
  Al  Al67      1.0  0.89228  0.25260  0.26368  1.0000
  Al  Al68      1.0  0.52282  0.25260  0.26368  1.0000
  Al  Al69      1.0  0.78514  0.25260  0.26368  1.0000
  Al  Al70      1.0  0.62996  0.25260  0.26368  1.0000
  Al  Al71      1.0  0.71740  0.30808  0.35976  1.0000
  Al  Al72      1.0  0.87258  0.30808  0.35976  1.0000
  Al  Al73      1.0  0.61026  0.30808  0.35976  1.0000
  Al  Al74      1.0  0.54250  0.36354  0.26368  1.0000
  Al  Al75      1.0  0.69770  0.36354  0.26368  1.0000
  Al  Al76      1.0  0.96002  0.36354  0.26368  1.0000
  Al  Al77      1.0  0.80484  0.36354  0.26368  1.0000
  O   O109      1.0  0.57638  0.30356  0.23426  1.0000
  O   O110      1.0  0.83872  0.36808  0.19700  1.0000
  O   O111      1.0  0.57638  0.36808  0.33036  1.0000
  O   O112      1.0  0.83872  0.30356  0.29310  1.0000
  O   O113      1.0  0.57638  0.25260  0.32252  1.0000
  O   O114      1.0  0.83872  0.25260  0.39704  1.0000
  O   O115      1.0  0.92616  0.35902  0.33034  1.0000
  O   O116      1.0  0.66382  0.25712  0.38918  1.0000
  O   O117      1.0  0.92616  0.25712  0.33034  1.0000
  O   O118      1.0  0.66382  0.35902  0.38918  1.0000
  O   O119      1.0  0.92616  0.30808  0.41860  1.0000
  O   O120      1.0  0.66382  0.30808  0.30092  1.0000
  O   O121      1.0  0.75126  0.41450  0.23426  1.0000
  O   O122      1.0  0.48894  0.31260  0.29310  1.0000
  O   O123      1.0  0.75126  0.31260  0.23426  1.0000
  O   O124      1.0  0.48894  0.41450  0.29310  1.0000
  O   O125      1.0  0.75126  0.36354  0.32252  1.0000
  O   O126      1.0  0.48894  0.36354  0.20484  1.0000
  Al  Al78      1.0  0.89228  0.41904  0.16758  1.0000
  Al  Al79      1.0  0.52282  0.41904  0.16758  1.0000
  Al  Al80      1.0  0.78514  0.41904  0.16758  1.0000
  Al  Al81      1.0  0.62996  0.41904  0.16758  1.0000
  Al  Al82      1.0  0.71740  0.47452  0.26366  1.0000
  Al  Al83      1.0  0.87258  0.47452  0.26366  1.0000
  Al  Al84      1.0  0.61026  0.47452  0.26366  1.0000
  Al  Al85      1.0  0.54250  0.53000  0.16758  1.0000
  Al  Al86      1.0  0.69770  0.53000  0.16758  1.0000
  Al  Al87      1.0  0.96002  0.53000  0.16758  1.0000
  Al  Al88      1.0  0.80484  0.53000  0.16758  1.0000
  O   O127      1.0  0.57638  0.47000  0.13816  1.0000
  O   O128      1.0  0.83872  0.53454  0.10090  1.0000
  O   O129      1.0  0.57638  0.53454  0.23426  1.0000
  O   O130      1.0  0.83872  0.47000  0.19700  1.0000
  O   O131      1.0  0.57638  0.41904  0.22642  1.0000
  O   O132      1.0  0.83872  0.41904  0.30094  1.0000
  O   O133      1.0  0.92616  0.52548  0.23424  1.0000
  O   O134      1.0  0.66382  0.42356  0.29308  1.0000
  O   O135      1.0  0.92616  0.42356  0.23424  1.0000
  O   O136      1.0  0.66382  0.52548  0.29308  1.0000
  O   O137      1.0  0.92616  0.47452  0.32250  1.0000
  O   O138      1.0  0.66382  0.47452  0.20482  1.0000
  O   O139      1.0  0.75126  0.58096  0.13816  1.0000
  O   O140      1.0  0.48894  0.47904  0.19700  1.0000
  O   O141      1.0  0.75126  0.47904  0.13816  1.0000
  O   O142      1.0  0.48894  0.58096  0.19700  1.0000
  O   O143      1.0  0.75126  0.53000  0.22642  1.0000
  O   O144      1.0  0.48894  0.53000  0.10874  1.0000
  Al  Al89      1.0  0.89228  0.58550  0.07148  1.0000
  Al  Al90      1.0  0.52282  0.58550  0.07148  1.0000
  Al  Al91      1.0  0.78514  0.58550  0.07148  1.0000
  Al  Al92      1.0  0.62996  0.58550  0.07148  1.0000
  Al  Al93      1.0  0.71740  0.64098  0.16756  1.0000
  Al  Al94      1.0  0.87258  0.64098  0.16756  1.0000
  Al  Al95      1.0  0.61026  0.64098  0.16756  1.0000
  Al  Al96      1.0  0.54250  0.69644  0.07148  1.0000
  Al  Al97      1.0  0.69770  0.69644  0.07148  1.0000
  Al  Al98      1.0  0.96002  0.69644  0.07148  1.0000
  Al  Al99      1.0  0.80484  0.69644  0.07148  1.0000
  O   O145      1.0  0.57638  0.63646  0.04206  1.0000
  O   O146      1.0  0.83872  0.70098  0.00480  1.0000
  O   O147      1.0  0.57638  0.70098  0.13816  1.0000
  O   O148      1.0  0.83872  0.63646  0.10090  1.0000
  O   O149      1.0  0.57638  0.58550  0.13032  1.0000
  O   O150      1.0  0.83872  0.58550  0.20484  1.0000
  O   O151      1.0  0.92616  0.69192  0.13814  1.0000
  O   O152      1.0  0.66382  0.59002  0.19698  1.0000
  O   O153      1.0  0.92616  0.59002  0.13814  1.0000
  O   O154      1.0  0.66382  0.69192  0.19698  1.0000
  O   O155      1.0  0.92616  0.64098  0.22640  1.0000
  O   O156      1.0  0.66382  0.64098  0.10872  1.0000
  O   O157      1.0  0.75126  0.74740  0.04206  1.0000
  O   O158      1.0  0.48894  0.64550  0.10090  1.0000
  O   O159      1.0  0.75126  0.64550  0.04206  1.0000
  O   O160      1.0  0.48894  0.74740  0.10090  1.0000
  O   O161      1.0  0.75126  0.69644  0.13032  1.0000
  O   O162      1.0  0.48894  0.69644  0.01264  1.0000
  Al  Al100     1.0  0.89228  0.75194  0.97538  1.0000
  Al  Al101     1.0  0.52282  0.75194  0.97538  1.0000
  Al  Al102     1.0  0.78514  0.75194  0.97538  1.0000
  Al  Al103     1.0  0.62996  0.75194  0.97538  1.0000
  Al  Al104     1.0  0.71740  0.80742  0.07146  1.0000
  Al  Al105     1.0  0.87258  0.80742  0.07146  1.0000
  Al  Al106     1.0  0.61026  0.80742  0.07146  1.0000
  Al  Al107     1.0  0.54250  0.86290  0.97538  1.0000
  Al  Al108     1.0  0.69770  0.86290  0.97538  1.0000
  Al  Al109     1.0  0.96002  0.86290  0.97538  1.0000
  Al  Al110     1.0  0.80484  0.86290  0.97538  1.0000
  O   O163      1.0  0.57638  0.80290  0.94596  1.0000
  O   O164      1.0  0.83872  0.86744  0.90870  1.0000
  O   O165      1.0  0.57638  0.86744  0.04206  1.0000
  O   O166      1.0  0.83872  0.80290  0.00480  1.0000
  O   O167      1.0  0.57638  0.75194  0.03422  1.0000
  O   O168      1.0  0.83872  0.75194  0.10874  1.0000
  O   O169      1.0  0.92616  0.85838  0.04204  1.0000
  O   O170      1.0  0.66382  0.75646  0.10088  1.0000
  O   O171      1.0  0.92616  0.75646  0.04204  1.0000
  O   O172      1.0  0.66382  0.85838  0.10088  1.0000
  O   O173      1.0  0.92616  0.80742  0.13030  1.0000
  O   O174      1.0  0.66382  0.80742  0.01262  1.0000
  O   O175      1.0  0.75126  0.91386  0.94596  1.0000
  O   O176      1.0  0.48894  0.81194  0.00480  1.0000
  O   O177      1.0  0.75126  0.81194  0.94596  1.0000
  O   O178      1.0  0.48894  0.91386  0.00480  1.0000
  O   O179      1.0  0.75126  0.86290  0.03422  1.0000
  O   O180      1.0  0.48894  0.86290  0.91654  1.0000
  Al  Al111     1.0  0.89228  0.08614  0.55198  1.0000
  Al  Al112     1.0  0.52282  0.08614  0.55198  1.0000
  Al  Al113     1.0  0.78514  0.08614  0.55198  1.0000
  Al  Al114     1.0  0.62996  0.08614  0.55198  1.0000
  Al  Al115     1.0  0.71740  0.14162  0.64806  1.0000
  Al  Al116     1.0  0.87258  0.14162  0.64806  1.0000
  Al  Al117     1.0  0.61026  0.14162  0.64806  1.0000
  Al  Al118     1.0  0.54250  0.19710  0.55198  1.0000
  Al  Al119     1.0  0.69770  0.19710  0.55198  1.0000
  Al  Al120     1.0  0.96002  0.19710  0.55198  1.0000
  Al  Al121     1.0  0.80484  0.19710  0.55198  1.0000
  O   O181      1.0  0.57638  0.13710  0.52256  1.0000
  O   O182      1.0  0.83872  0.20162  0.48530  1.0000
  O   O183      1.0  0.57638  0.20162  0.61866  1.0000
  O   O184      1.0  0.83872  0.13710  0.58140  1.0000
  O   O185      1.0  0.57638  0.08614  0.61082  1.0000
  O   O186      1.0  0.83872  0.08614  0.68534  1.0000
  O   O187      1.0  0.92616  0.19258  0.61864  1.0000
  O   O188      1.0  0.66382  0.09066  0.67748  1.0000
  O   O189      1.0  0.92616  0.09066  0.61864  1.0000
  O   O190      1.0  0.66382  0.19258  0.67748  1.0000
  O   O191      1.0  0.92616  0.14162  0.70690  1.0000
  O   O192      1.0  0.66382  0.14162  0.58922  1.0000
  O   O193      1.0  0.75126  0.24806  0.52256  1.0000
  O   O194      1.0  0.48894  0.14614  0.58140  1.0000
  O   O195      1.0  0.75126  0.14614  0.52256  1.0000
  O   O196      1.0  0.48894  0.24806  0.58140  1.0000
  O   O197      1.0  0.75126  0.19710  0.61082  1.0000
  O   O198      1.0  0.48894  0.19710  0.49314  1.0000
  Al  Al122     1.0  0.89228  0.25260  0.45588  1.0000
  Al  Al123     1.0  0.52282  0.25260  0.45588  1.0000
  Al  Al124     1.0  0.78514  0.25260  0.45588  1.0000
  Al  Al125     1.0  0.62996  0.25260  0.45588  1.0000
  Al  Al126     1.0  0.71740  0.30808  0.55196  1.0000
  Al  Al127     1.0  0.87258  0.30808  0.55196  1.0000
  Al  Al128     1.0  0.61026  0.30808  0.55196  1.0000
  Al  Al129     1.0  0.54250  0.36354  0.45588  1.0000
  Al  Al130     1.0  0.69770  0.36354  0.45588  1.0000
  Al  Al131     1.0  0.96002  0.36354  0.45588  1.0000
  Al  Al132     1.0  0.80484  0.36354  0.45588  1.0000
  O   O199      1.0  0.57638  0.30356  0.42646  1.0000
  O   O200      1.0  0.83872  0.36808  0.38920  1.0000
  O   O201      1.0  0.57638  0.36808  0.52256  1.0000
  O   O202      1.0  0.83872  0.30356  0.48530  1.0000
  O   O203      1.0  0.57638  0.25260  0.51472  1.0000
  O   O204      1.0  0.83872  0.25260  0.58924  1.0000
  O   O205      1.0  0.92616  0.35902  0.52254  1.0000
  O   O206      1.0  0.66382  0.25712  0.58138  1.0000
  O   O207      1.0  0.92616  0.25712  0.52254  1.0000
  O   O208      1.0  0.66382  0.35902  0.58138  1.0000
  O   O209      1.0  0.92616  0.30808  0.61080  1.0000
  O   O210      1.0  0.66382  0.30808  0.49312  1.0000
  O   O211      1.0  0.75126  0.41450  0.42646  1.0000
  O   O212      1.0  0.48894  0.31260  0.48530  1.0000
  O   O213      1.0  0.75126  0.31260  0.42646  1.0000
  O   O214      1.0  0.48894  0.41450  0.48530  1.0000
  O   O215      1.0  0.75126  0.36354  0.51472  1.0000
  O   O216      1.0  0.48894  0.36354  0.39704  1.0000
  Al  Al133     1.0  0.89228  0.41904  0.35978  1.0000
  Al  Al134     1.0  0.52282  0.41904  0.35978  1.0000
  Al  Al135     1.0  0.78514  0.41904  0.35978  1.0000
  Al  Al136     1.0  0.62996  0.41904  0.35978  1.0000
  Al  Al137     1.0  0.71740  0.47452  0.45586  1.0000
  Al  Al138     1.0  0.87258  0.47452  0.45586  1.0000
  Al  Al139     1.0  0.61026  0.47452  0.45586  1.0000
  Al  Al140     1.0  0.54250  0.53000  0.35978  1.0000
  Al  Al141     1.0  0.69770  0.53000  0.35978  1.0000
  Al  Al142     1.0  0.96002  0.53000  0.35978  1.0000
  Al  Al143     1.0  0.80484  0.53000  0.35978  1.0000
  O   O217      1.0  0.57638  0.47000  0.33036  1.0000
  O   O218      1.0  0.83872  0.53454  0.29310  1.0000
  O   O219      1.0  0.57638  0.53454  0.42646  1.0000
  O   O220      1.0  0.83872  0.47000  0.38920  1.0000
  O   O221      1.0  0.57638  0.41904  0.41862  1.0000
  O   O222      1.0  0.83872  0.41904  0.49314  1.0000
  O   O223      1.0  0.92616  0.52548  0.42644  1.0000
  O   O224      1.0  0.66382  0.42356  0.48528  1.0000
  O   O225      1.0  0.92616  0.42356  0.42644  1.0000
  O   O226      1.0  0.66382  0.52548  0.48528  1.0000
  O   O227      1.0  0.92616  0.47452  0.51470  1.0000
  O   O228      1.0  0.66382  0.47452  0.39702  1.0000
  O   O229      1.0  0.75126  0.58096  0.33036  1.0000
  O   O230      1.0  0.48894  0.47904  0.38920  1.0000
  O   O231      1.0  0.75126  0.47904  0.33036  1.0000
  O   O232      1.0  0.48894  0.58096  0.38920  1.0000
  O   O233      1.0  0.75126  0.53000  0.41862  1.0000
  O   O234      1.0  0.48894  0.53000  0.30094  1.0000
  Al  Al144     1.0  0.89228  0.58550  0.26368  1.0000
  Al  Al145     1.0  0.52282  0.58550  0.26368  1.0000
  Al  Al146     1.0  0.78514  0.58550  0.26368  1.0000
  Al  Al147     1.0  0.62996  0.58550  0.26368  1.0000
  Al  Al148     1.0  0.71740  0.64098  0.35976  1.0000
  Al  Al149     1.0  0.87258  0.64098  0.35976  1.0000
  Al  Al150     1.0  0.61026  0.64098  0.35976  1.0000
  Al  Al151     1.0  0.54250  0.69644  0.26368  1.0000
  Al  Al152     1.0  0.69770  0.69644  0.26368  1.0000
  Al  Al153     1.0  0.96002  0.69644  0.26368  1.0000
  Al  Al154     1.0  0.80484  0.69644  0.26368  1.0000
  O   O235      1.0  0.57638  0.63646  0.23426  1.0000
  O   O236      1.0  0.83872  0.70098  0.19700  1.0000
  O   O237      1.0  0.57638  0.70098  0.33036  1.0000
  O   O238      1.0  0.83872  0.63646  0.29310  1.0000
  O   O239      1.0  0.57638  0.58550  0.32252  1.0000
  O   O240      1.0  0.83872  0.58550  0.39704  1.0000
  O   O241      1.0  0.92616  0.69192  0.33034  1.0000
  O   O242      1.0  0.66382  0.59002  0.38918  1.0000
  O   O243      1.0  0.92616  0.59002  0.33034  1.0000
  O   O244      1.0  0.66382  0.69192  0.38918  1.0000
  O   O245      1.0  0.92616  0.64098  0.41860  1.0000
  O   O246      1.0  0.66382  0.64098  0.30092  1.0000
  O   O247      1.0  0.75126  0.74740  0.23426  1.0000
  O   O248      1.0  0.48894  0.64550  0.29310  1.0000
  O   O249      1.0  0.75126  0.64550  0.23426  1.0000
  O   O250      1.0  0.48894  0.74740  0.29310  1.0000
  O   O251      1.0  0.75126  0.69644  0.32252  1.0000
  O   O252      1.0  0.48894  0.69644  0.20484  1.0000
  Al  Al155     1.0  0.89228  0.75194  0.16758  1.0000
  Al  Al156     1.0  0.52282  0.75194  0.16758  1.0000
  Al  Al157     1.0  0.78514  0.75194  0.16758  1.0000
  Al  Al158     1.0  0.62996  0.75194  0.16758  1.0000
  Al  Al159     1.0  0.71740  0.80742  0.26366  1.0000
  Al  Al160     1.0  0.87258  0.80742  0.26366  1.0000
  Al  Al161     1.0  0.61026  0.80742  0.26366  1.0000
  Al  Al162     1.0  0.54250  0.86290  0.16758  1.0000
  Al  Al163     1.0  0.69770  0.86290  0.16758  1.0000
  Al  Al164     1.0  0.96002  0.86290  0.16758  1.0000
  Al  Al165     1.0  0.80484  0.86290  0.16758  1.0000
  O   O253      1.0  0.57638  0.80290  0.13816  1.0000
  O   O254      1.0  0.83872  0.86744  0.10090  1.0000
  O   O255      1.0  0.57638  0.86744  0.23426  1.0000
  O   O256      1.0  0.83872  0.80290  0.19700  1.0000
  O   O257      1.0  0.57638  0.75194  0.22642  1.0000
  O   O258      1.0  0.83872  0.75194  0.30094  1.0000
  O   O259      1.0  0.92616  0.85838  0.23424  1.0000
  O   O260      1.0  0.66382  0.75646  0.29308  1.0000
  O   O261      1.0  0.92616  0.75646  0.23424  1.0000
  O   O262      1.0  0.66382  0.85838  0.29308  1.0000
  O   O263      1.0  0.92616  0.80742  0.32250  1.0000
  O   O264      1.0  0.66382  0.80742  0.20482  1.0000
  O   O265      1.0  0.75126  0.91386  0.13816  1.0000
  O   O266      1.0  0.48894  0.81194  0.19700  1.0000
  O   O267      1.0  0.75126  0.81194  0.13816  1.0000
  O   O268      1.0  0.48894  0.91386  0.19700  1.0000
  O   O269      1.0  0.75126  0.86290  0.22642  1.0000
  O   O270      1.0  0.48894  0.86290  0.10874  1.0000
  Al  Al166     1.0  0.89228  0.08614  0.74418  1.0000
  Al  Al167     1.0  0.52282  0.08614  0.74418  1.0000
  Al  Al168     1.0  0.78514  0.08614  0.74418  1.0000
  Al  Al169     1.0  0.62996  0.08614  0.74418  1.0000
  Al  Al170     1.0  0.71740  0.14162  0.84026  1.0000
  Al  Al171     1.0  0.87258  0.14162  0.84026  1.0000
  Al  Al172     1.0  0.61026  0.14162  0.84026  1.0000
  Al  Al173     1.0  0.54250  0.19710  0.74418  1.0000
  Al  Al174     1.0  0.69770  0.19710  0.74418  1.0000
  Al  Al175     1.0  0.96002  0.19710  0.74418  1.0000
  Al  Al176     1.0  0.80484  0.19710  0.74418  1.0000
  O   O271      1.0  0.57638  0.13710  0.71476  1.0000
  O   O272      1.0  0.83872  0.20162  0.67750  1.0000
  O   O273      1.0  0.57638  0.20162  0.81086  1.0000
  O   O274      1.0  0.83872  0.13710  0.77360  1.0000
  O   O275      1.0  0.57638  0.08614  0.80302  1.0000
  O   O276      1.0  0.83872  0.08614  0.87754  1.0000
  O   O277      1.0  0.92616  0.19258  0.81084  1.0000
  O   O278      1.0  0.66382  0.09066  0.86968  1.0000
  O   O279      1.0  0.92616  0.09066  0.81084  1.0000
  O   O280      1.0  0.66382  0.19258  0.86968  1.0000
  O   O281      1.0  0.92616  0.14162  0.89910  1.0000
  O   O282      1.0  0.66382  0.14162  0.78142  1.0000
  O   O283      1.0  0.75126  0.24806  0.71476  1.0000
  O   O284      1.0  0.48894  0.14614  0.77360  1.0000
  O   O285      1.0  0.75126  0.14614  0.71476  1.0000
  O   O286      1.0  0.48894  0.24806  0.77360  1.0000
  O   O287      1.0  0.75126  0.19710  0.80302  1.0000
  O   O288      1.0  0.48894  0.19710  0.68534  1.0000
  Al  Al177     1.0  0.89228  0.25260  0.64808  1.0000
  Al  Al178     1.0  0.52282  0.25260  0.64808  1.0000
  Al  Al179     1.0  0.78514  0.25260  0.64808  1.0000
  Al  Al180     1.0  0.62996  0.25260  0.64808  1.0000
  Al  Al181     1.0  0.71740  0.30808  0.74416  1.0000
  Al  Al182     1.0  0.87258  0.30808  0.74416  1.0000
  Al  Al183     1.0  0.61026  0.30808  0.74416  1.0000
  Al  Al184     1.0  0.54250  0.36354  0.64808  1.0000
  Al  Al185     1.0  0.69770  0.36354  0.64808  1.0000
  Al  Al186     1.0  0.96002  0.36354  0.64808  1.0000
  Al  Al187     1.0  0.80484  0.36354  0.64808  1.0000
  O   O289      1.0  0.57638  0.30356  0.61866  1.0000
  O   O290      1.0  0.83872  0.36808  0.58140  1.0000
  O   O291      1.0  0.57638  0.36808  0.71476  1.0000
  O   O292      1.0  0.83872  0.30356  0.67750  1.0000
  O   O293      1.0  0.57638  0.25260  0.70692  1.0000
  O   O294      1.0  0.83872  0.25260  0.78144  1.0000
  O   O295      1.0  0.92616  0.35902  0.71474  1.0000
  O   O296      1.0  0.66382  0.25712  0.77358  1.0000
  O   O297      1.0  0.92616  0.25712  0.71474  1.0000
  O   O298      1.0  0.66382  0.35902  0.77358  1.0000
  O   O299      1.0  0.92616  0.30808  0.80300  1.0000
  O   O300      1.0  0.66382  0.30808  0.68532  1.0000
  O   O301      1.0  0.75126  0.41450  0.61866  1.0000
  O   O302      1.0  0.48894  0.31260  0.67750  1.0000
  O   O303      1.0  0.75126  0.31260  0.61866  1.0000
  O   O304      1.0  0.48894  0.41450  0.67750  1.0000
  O   O305      1.0  0.75126  0.36354  0.70692  1.0000
  O   O306      1.0  0.48894  0.36354  0.58924  1.0000
  Al  Al188     1.0  0.89228  0.41904  0.55198  1.0000
  Al  Al189     1.0  0.52282  0.41904  0.55198  1.0000
  Al  Al190     1.0  0.78514  0.41904  0.55198  1.0000
  Al  Al191     1.0  0.62996  0.41904  0.55198  1.0000
  Al  Al192     1.0  0.71740  0.47452  0.64806  1.0000
  Al  Al193     1.0  0.87258  0.47452  0.64806  1.0000
  Al  Al194     1.0  0.61026  0.47452  0.64806  1.0000
  Al  Al195     1.0  0.54250  0.53000  0.55198  1.0000
  Al  Al196     1.0  0.69770  0.53000  0.55198  1.0000
  Al  Al197     1.0  0.96002  0.53000  0.55198  1.0000
  Al  Al198     1.0  0.80484  0.53000  0.55198  1.0000
  O   O307      1.0  0.57638  0.47000  0.52256  1.0000
  O   O308      1.0  0.83872  0.53454  0.48530  1.0000
  O   O309      1.0  0.57638  0.53454  0.61866  1.0000
  O   O310      1.0  0.83872  0.47000  0.58140  1.0000
  O   O311      1.0  0.57638  0.41904  0.61082  1.0000
  O   O312      1.0  0.83872  0.41904  0.68534  1.0000
  O   O313      1.0  0.92616  0.52548  0.61864  1.0000
  O   O314      1.0  0.66382  0.42356  0.67748  1.0000
  O   O315      1.0  0.92616  0.42356  0.61864  1.0000
  O   O316      1.0  0.66382  0.52548  0.67748  1.0000
  O   O317      1.0  0.92616  0.47452  0.70690  1.0000
  O   O318      1.0  0.66382  0.47452  0.58922  1.0000
  O   O319      1.0  0.75126  0.58096  0.52256  1.0000
  O   O320      1.0  0.48894  0.47904  0.58140  1.0000
  O   O321      1.0  0.75126  0.47904  0.52256  1.0000
  O   O322      1.0  0.48894  0.58096  0.58140  1.0000
  O   O323      1.0  0.75126  0.53000  0.61082  1.0000
  O   O324      1.0  0.48894  0.53000  0.49314  1.0000
  Al  Al199     1.0  0.89228  0.58550  0.45588  1.0000
  Al  Al200     1.0  0.52282  0.58550  0.45588  1.0000
  Al  Al201     1.0  0.78514  0.58550  0.45588  1.0000
  Al  Al202     1.0  0.62996  0.58550  0.45588  1.0000
  Al  Al203     1.0  0.71740  0.64098  0.55196  1.0000
  Al  Al204     1.0  0.87258  0.64098  0.55196  1.0000
  Al  Al205     1.0  0.61026  0.64098  0.55196  1.0000
  Al  Al206     1.0  0.54250  0.69644  0.45588  1.0000
  Al  Al207     1.0  0.69770  0.69644  0.45588  1.0000
  Al  Al208     1.0  0.96002  0.69644  0.45588  1.0000
  Al  Al209     1.0  0.80484  0.69644  0.45588  1.0000
  O   O325      1.0  0.57638  0.63646  0.42646  1.0000
  O   O326      1.0  0.83872  0.70098  0.38920  1.0000
  O   O327      1.0  0.57638  0.70098  0.52256  1.0000
  O   O328      1.0  0.83872  0.63646  0.48530  1.0000
  O   O329      1.0  0.57638  0.58550  0.51472  1.0000
  O   O330      1.0  0.83872  0.58550  0.58924  1.0000
  O   O331      1.0  0.92616  0.69192  0.52254  1.0000
  O   O332      1.0  0.66382  0.59002  0.58138  1.0000
  O   O333      1.0  0.92616  0.59002  0.52254  1.0000
  O   O334      1.0  0.66382  0.69192  0.58138  1.0000
  O   O335      1.0  0.92616  0.64098  0.61080  1.0000
  O   O336      1.0  0.66382  0.64098  0.49312  1.0000
  O   O337      1.0  0.75126  0.74740  0.42646  1.0000
  O   O338      1.0  0.48894  0.64550  0.48530  1.0000
  O   O339      1.0  0.75126  0.64550  0.42646  1.0000
  O   O340      1.0  0.48894  0.74740  0.48530  1.0000
  O   O341      1.0  0.75126  0.69644  0.51472  1.0000
  O   O342      1.0  0.48894  0.69644  0.39704  1.0000
  Al  Al210     1.0  0.89228  0.75194  0.35978  1.0000
  Al  Al211     1.0  0.52282  0.75194  0.35978  1.0000
  Al  Al212     1.0  0.78514  0.75194  0.35978  1.0000
  Al  Al213     1.0  0.62996  0.75194  0.35978  1.0000
  Al  Al214     1.0  0.71740  0.80742  0.45586  1.0000
  Al  Al215     1.0  0.87258  0.80742  0.45586  1.0000
  Al  Al216     1.0  0.61026  0.80742  0.45586  1.0000
  Al  Al217     1.0  0.54250  0.86290  0.35978  1.0000
  Al  Al218     1.0  0.69770  0.86290  0.35978  1.0000
  Al  Al219     1.0  0.96002  0.86290  0.35978  1.0000
  Al  Al220     1.0  0.80484  0.86290  0.35978  1.0000
  O   O343      1.0  0.57638  0.80290  0.33036  1.0000
  O   O344      1.0  0.83872  0.86744  0.29310  1.0000
  O   O345      1.0  0.57638  0.86744  0.42646  1.0000
  O   O346      1.0  0.83872  0.80290  0.38920  1.0000
  O   O347      1.0  0.57638  0.75194  0.41862  1.0000
  O   O348      1.0  0.83872  0.75194  0.49314  1.0000
  O   O349      1.0  0.92616  0.85838  0.42644  1.0000
  O   O350      1.0  0.66382  0.75646  0.48528  1.0000
  O   O351      1.0  0.92616  0.75646  0.42644  1.0000
  O   O352      1.0  0.66382  0.85838  0.48528  1.0000
  O   O353      1.0  0.92616  0.80742  0.51470  1.0000
  O   O354      1.0  0.66382  0.80742  0.39702  1.0000
  O   O355      1.0  0.75126  0.91386  0.33036  1.0000
  O   O356      1.0  0.48894  0.81194  0.38920  1.0000
  O   O357      1.0  0.75126  0.81194  0.33036  1.0000
  O   O358      1.0  0.48894  0.91386  0.38920  1.0000
  O   O359      1.0  0.75126  0.86290  0.41862  1.0000
  O   O360      1.0  0.48894  0.86290  0.30094  1.0000
  Al  Al221     1.0  0.89228  0.08614  0.93638  1.0000
  Al  Al222     1.0  0.52282  0.08614  0.93638  1.0000
  Al  Al223     1.0  0.78514  0.08614  0.93638  1.0000
  Al  Al224     1.0  0.62996  0.08614  0.93638  1.0000
  Al  Al225     1.0  0.71740  0.14162  0.03246  1.0000
  Al  Al226     1.0  0.87258  0.14162  0.03246  1.0000
  Al  Al227     1.0  0.61026  0.14162  0.03246  1.0000
  Al  Al228     1.0  0.54250  0.19710  0.93638  1.0000
  Al  Al229     1.0  0.69770  0.19710  0.93638  1.0000
  Al  Al230     1.0  0.96002  0.19710  0.93638  1.0000
  Al  Al231     1.0  0.80484  0.19710  0.93638  1.0000
  O   O361      1.0  0.57638  0.13710  0.90696  1.0000
  O   O362      1.0  0.83872  0.20162  0.86970  1.0000
  O   O363      1.0  0.57638  0.20162  0.00306  1.0000
  O   O364      1.0  0.83872  0.13710  0.96580  1.0000
  O   O365      1.0  0.57638  0.08614  0.99522  1.0000
  O   O366      1.0  0.83872  0.08614  0.06974  1.0000
  O   O367      1.0  0.92616  0.19258  0.00304  1.0000
  O   O368      1.0  0.66382  0.09066  0.06188  1.0000
  O   O369      1.0  0.92616  0.09066  0.00304  1.0000
  O   O370      1.0  0.66382  0.19258  0.06188  1.0000
  O   O371      1.0  0.92616  0.14162  0.09130  1.0000
  O   O372      1.0  0.66382  0.14162  0.97362  1.0000
  O   O373      1.0  0.75126  0.24806  0.90696  1.0000
  O   O374      1.0  0.48894  0.14614  0.96580  1.0000
  O   O375      1.0  0.75126  0.14614  0.90696  1.0000
  O   O376      1.0  0.48894  0.24806  0.96580  1.0000
  O   O377      1.0  0.75126  0.19710  0.99522  1.0000
  O   O378      1.0  0.48894  0.19710  0.87754  1.0000
  Al  Al232     1.0  0.89228  0.25260  0.84028  1.0000
  Al  Al233     1.0  0.52282  0.25260  0.84028  1.0000
  Al  Al234     1.0  0.78514  0.25260  0.84028  1.0000
  Al  Al235     1.0  0.62996  0.25260  0.84028  1.0000
  Al  Al236     1.0  0.71740  0.30808  0.93636  1.0000
  Al  Al237     1.0  0.87258  0.30808  0.93636  1.0000
  Al  Al238     1.0  0.61026  0.30808  0.93636  1.0000
  Al  Al239     1.0  0.54250  0.36354  0.84028  1.0000
  Al  Al240     1.0  0.69770  0.36354  0.84028  1.0000
  Al  Al241     1.0  0.96002  0.36354  0.84028  1.0000
  Al  Al242     1.0  0.80484  0.36354  0.84028  1.0000
  O   O379      1.0  0.57638  0.30356  0.81086  1.0000
  O   O380      1.0  0.83872  0.36808  0.77360  1.0000
  O   O381      1.0  0.57638  0.36808  0.90696  1.0000
  O   O382      1.0  0.83872  0.30356  0.86970  1.0000
  O   O383      1.0  0.57638  0.25260  0.89912  1.0000
  O   O384      1.0  0.83872  0.25260  0.97364  1.0000
  O   O385      1.0  0.92616  0.35902  0.90694  1.0000
  O   O386      1.0  0.66382  0.25712  0.96578  1.0000
  O   O387      1.0  0.92616  0.25712  0.90694  1.0000
  O   O388      1.0  0.66382  0.35902  0.96578  1.0000
  O   O389      1.0  0.92616  0.30808  0.99520  1.0000
  O   O390      1.0  0.66382  0.30808  0.87752  1.0000
  O   O391      1.0  0.75126  0.41450  0.81086  1.0000
  O   O392      1.0  0.48894  0.31260  0.86970  1.0000
  O   O393      1.0  0.75126  0.31260  0.81086  1.0000
  O   O394      1.0  0.48894  0.41450  0.86970  1.0000
  O   O395      1.0  0.75126  0.36354  0.89912  1.0000
  O   O396      1.0  0.48894  0.36354  0.78144  1.0000
  Al  Al243     1.0  0.89228  0.41904  0.74418  1.0000
  Al  Al244     1.0  0.52282  0.41904  0.74418  1.0000
  Al  Al245     1.0  0.78514  0.41904  0.74418  1.0000
  Al  Al246     1.0  0.62996  0.41904  0.74418  1.0000
  Al  Al247     1.0  0.71740  0.47452  0.84026  1.0000
  Al  Al248     1.0  0.87258  0.47452  0.84026  1.0000
  Al  Al249     1.0  0.61026  0.47452  0.84026  1.0000
  Al  Al250     1.0  0.54250  0.53000  0.74418  1.0000
  Al  Al251     1.0  0.69770  0.53000  0.74418  1.0000
  Al  Al252     1.0  0.96002  0.53000  0.74418  1.0000
  Al  Al253     1.0  0.80484  0.53000  0.74418  1.0000
  O   O397      1.0  0.57638  0.47000  0.71476  1.0000
  O   O398      1.0  0.83872  0.53454  0.67750  1.0000
  O   O399      1.0  0.57638  0.53454  0.81086  1.0000
  O   O400      1.0  0.83872  0.47000  0.77360  1.0000
  O   O401      1.0  0.57638  0.41904  0.80302  1.0000
  O   O402      1.0  0.83872  0.41904  0.87754  1.0000
  O   O403      1.0  0.92616  0.52548  0.81084  1.0000
  O   O404      1.0  0.66382  0.42356  0.86968  1.0000
  O   O405      1.0  0.92616  0.42356  0.81084  1.0000
  O   O406      1.0  0.66382  0.52548  0.86968  1.0000
  O   O407      1.0  0.92616  0.47452  0.89910  1.0000
  O   O408      1.0  0.66382  0.47452  0.78142  1.0000
  O   O409      1.0  0.75126  0.58096  0.71476  1.0000
  O   O410      1.0  0.48894  0.47904  0.77360  1.0000
  O   O411      1.0  0.75126  0.47904  0.71476  1.0000
  O   O412      1.0  0.48894  0.58096  0.77360  1.0000
  O   O413      1.0  0.75126  0.53000  0.80302  1.0000
  O   O414      1.0  0.48894  0.53000  0.68534  1.0000
  Al  Al254     1.0  0.89228  0.58550  0.64808  1.0000
  Al  Al255     1.0  0.52282  0.58550  0.64808  1.0000
  Al  Al256     1.0  0.78514  0.58550  0.64808  1.0000
  Al  Al257     1.0  0.62996  0.58550  0.64808  1.0000
  Al  Al258     1.0  0.71740  0.64098  0.74416  1.0000
  Al  Al259     1.0  0.87258  0.64098  0.74416  1.0000
  Al  Al260     1.0  0.61026  0.64098  0.74416  1.0000
  Al  Al261     1.0  0.54250  0.69644  0.64808  1.0000
  Al  Al262     1.0  0.69770  0.69644  0.64808  1.0000
  Al  Al263     1.0  0.96002  0.69644  0.64808  1.0000
  Al  Al264     1.0  0.80484  0.69644  0.64808  1.0000
  O   O415      1.0  0.57638  0.63646  0.61866  1.0000
  O   O416      1.0  0.83872  0.70098  0.58140  1.0000
  O   O417      1.0  0.57638  0.70098  0.71476  1.0000
  O   O418      1.0  0.83872  0.63646  0.67750  1.0000
  O   O419      1.0  0.57638  0.58550  0.70692  1.0000
  O   O420      1.0  0.83872  0.58550  0.78144  1.0000
  O   O421      1.0  0.92616  0.69192  0.71474  1.0000
  O   O422      1.0  0.66382  0.59002  0.77358  1.0000
  O   O423      1.0  0.92616  0.59002  0.71474  1.0000
  O   O424      1.0  0.66382  0.69192  0.77358  1.0000
  O   O425      1.0  0.92616  0.64098  0.80300  1.0000
  O   O426      1.0  0.66382  0.64098  0.68532  1.0000
  O   O427      1.0  0.75126  0.74740  0.61866  1.0000
  O   O428      1.0  0.48894  0.64550  0.67750  1.0000
  O   O429      1.0  0.75126  0.64550  0.61866  1.0000
  O   O430      1.0  0.48894  0.74740  0.67750  1.0000
  O   O431      1.0  0.75126  0.69644  0.70692  1.0000
  O   O432      1.0  0.48894  0.69644  0.58924  1.0000
  Al  Al265     1.0  0.89228  0.75194  0.55198  1.0000
  Al  Al266     1.0  0.52282  0.75194  0.55198  1.0000
  Al  Al267     1.0  0.78514  0.75194  0.55198  1.0000
  Al  Al268     1.0  0.62996  0.75194  0.55198  1.0000
  Al  Al269     1.0  0.71740  0.80742  0.64806  1.0000
  Al  Al270     1.0  0.87258  0.80742  0.64806  1.0000
  Al  Al271     1.0  0.61026  0.80742  0.64806  1.0000
  Al  Al272     1.0  0.54250  0.86290  0.55198  1.0000
  Al  Al273     1.0  0.69770  0.86290  0.55198  1.0000
  Al  Al274     1.0  0.96002  0.86290  0.55198  1.0000
  Al  Al275     1.0  0.80484  0.86290  0.55198  1.0000
  O   O433      1.0  0.57638  0.80290  0.52256  1.0000
  O   O434      1.0  0.83872  0.86744  0.48530  1.0000
  O   O435      1.0  0.57638  0.86744  0.61866  1.0000
  O   O436      1.0  0.83872  0.80290  0.58140  1.0000
  O   O437      1.0  0.57638  0.75194  0.61082  1.0000
  O   O438      1.0  0.83872  0.75194  0.68534  1.0000
  O   O439      1.0  0.92616  0.85838  0.61864  1.0000
  O   O440      1.0  0.66382  0.75646  0.67748  1.0000
  O   O441      1.0  0.92616  0.75646  0.61864  1.0000
  O   O442      1.0  0.66382  0.85838  0.67748  1.0000
  O   O443      1.0  0.92616  0.80742  0.70690  1.0000
  O   O444      1.0  0.66382  0.80742  0.58922  1.0000
  O   O445      1.0  0.75126  0.91386  0.52256  1.0000
  O   O446      1.0  0.48894  0.81194  0.58140  1.0000
  O   O447      1.0  0.75126  0.81194  0.52256  1.0000
  O   O448      1.0  0.48894  0.91386  0.58140  1.0000
  O   O449      1.0  0.75126  0.86290  0.61082  1.0000
  O   O450      1.0  0.48894  0.86290  0.49314  1.0000
  Al  Al276     1.0  0.89228  0.08614  0.12858  1.0000
  Al  Al277     1.0  0.52282  0.08614  0.12858  1.0000
  Al  Al278     1.0  0.78514  0.08614  0.12858  1.0000
  Al  Al279     1.0  0.62996  0.08614  0.12858  1.0000
  Al  Al280     1.0  0.71740  0.14162  0.22466  1.0000
  Al  Al281     1.0  0.87258  0.14162  0.22466  1.0000
  Al  Al282     1.0  0.61026  0.14162  0.22466  1.0000
  Al  Al283     1.0  0.54250  0.19710  0.12858  1.0000
  Al  Al284     1.0  0.69770  0.19710  0.12858  1.0000
  Al  Al285     1.0  0.96002  0.19710  0.12858  1.0000
  Al  Al286     1.0  0.80484  0.19710  0.12858  1.0000
  O   O451      1.0  0.57638  0.13710  0.09916  1.0000
  O   O452      1.0  0.83872  0.20162  0.06190  1.0000
  O   O453      1.0  0.57638  0.20162  0.19526  1.0000
  O   O454      1.0  0.83872  0.13710  0.15800  1.0000
  O   O455      1.0  0.57638  0.08614  0.18742  1.0000
  O   O456      1.0  0.83872  0.08614  0.26194  1.0000
  O   O457      1.0  0.92616  0.19258  0.19524  1.0000
  O   O458      1.0  0.66382  0.09066  0.25408  1.0000
  O   O459      1.0  0.92616  0.09066  0.19524  1.0000
  O   O460      1.0  0.66382  0.19258  0.25410  1.0000
  O   O461      1.0  0.92616  0.14162  0.28352  1.0000
  O   O462      1.0  0.66382  0.14162  0.16582  1.0000
  O   O463      1.0  0.75126  0.24806  0.09916  1.0000
  O   O464      1.0  0.48894  0.14614  0.15800  1.0000
  O   O465      1.0  0.75126  0.14614  0.09916  1.0000
  O   O466      1.0  0.48894  0.24806  0.15800  1.0000
  O   O467      1.0  0.75126  0.19710  0.18742  1.0000
  O   O468      1.0  0.48894  0.19710  0.06974  1.0000
  Al  Al287     1.0  0.89228  0.25260  0.03248  1.0000
  Al  Al288     1.0  0.52282  0.25260  0.03248  1.0000
  Al  Al289     1.0  0.78514  0.25260  0.03248  1.0000
  Al  Al290     1.0  0.62996  0.25260  0.03248  1.0000
  Al  Al291     1.0  0.71740  0.30808  0.12856  1.0000
  Al  Al292     1.0  0.87258  0.30808  0.12856  1.0000
  Al  Al293     1.0  0.61026  0.30808  0.12856  1.0000
  Al  Al294     1.0  0.54250  0.36354  0.03248  1.0000
  Al  Al295     1.0  0.69770  0.36354  0.03248  1.0000
  Al  Al296     1.0  0.96002  0.36354  0.03248  1.0000
  Al  Al297     1.0  0.80484  0.36354  0.03248  1.0000
  O   O469      1.0  0.57638  0.30356  0.00306  1.0000
  O   O470      1.0  0.83872  0.36808  0.96580  1.0000
  O   O471      1.0  0.57638  0.36808  0.09916  1.0000
  O   O472      1.0  0.83872  0.30356  0.06190  1.0000
  O   O473      1.0  0.57638  0.25260  0.09132  1.0000
  O   O474      1.0  0.83872  0.25260  0.16584  1.0000
  O   O475      1.0  0.92616  0.35902  0.09914  1.0000
  O   O476      1.0  0.66382  0.25712  0.15798  1.0000
  O   O477      1.0  0.92616  0.25712  0.09914  1.0000
  O   O478      1.0  0.66382  0.35902  0.15800  1.0000
  O   O479      1.0  0.92616  0.30808  0.18742  1.0000
  O   O480      1.0  0.66382  0.30808  0.06972  1.0000
  O   O481      1.0  0.75126  0.41450  0.00306  1.0000
  O   O482      1.0  0.48894  0.31260  0.06190  1.0000
  O   O483      1.0  0.75126  0.31260  0.00306  1.0000
  O   O484      1.0  0.48894  0.41450  0.06190  1.0000
  O   O485      1.0  0.75126  0.36354  0.09132  1.0000
  O   O486      1.0  0.48894  0.36354  0.97364  1.0000
  Al  Al298     1.0  0.89228  0.41904  0.93638  1.0000
  Al  Al299     1.0  0.52282  0.41904  0.93638  1.0000
  Al  Al300     1.0  0.78514  0.41904  0.93638  1.0000
  Al  Al301     1.0  0.62996  0.41904  0.93638  1.0000
  Al  Al302     1.0  0.71740  0.47452  0.03246  1.0000
  Al  Al303     1.0  0.87258  0.47452  0.03246  1.0000
  Al  Al304     1.0  0.61026  0.47452  0.03246  1.0000
  Al  Al305     1.0  0.54250  0.53000  0.93638  1.0000
  Al  Al306     1.0  0.69770  0.53000  0.93638  1.0000
  Al  Al307     1.0  0.96002  0.53000  0.93638  1.0000
  Al  Al308     1.0  0.80484  0.53000  0.93638  1.0000
  O   O487      1.0  0.57638  0.47000  0.90696  1.0000
  O   O488      1.0  0.83872  0.53454  0.86970  1.0000
  O   O489      1.0  0.57638  0.53454  0.00306  1.0000
  O   O490      1.0  0.83872  0.47000  0.96580  1.0000
  O   O491      1.0  0.57638  0.41904  0.99522  1.0000
  O   O492      1.0  0.83872  0.41904  0.06974  1.0000
  O   O493      1.0  0.92616  0.52548  0.00304  1.0000
  O   O494      1.0  0.66382  0.42356  0.06188  1.0000
  O   O495      1.0  0.92616  0.42356  0.00304  1.0000
  O   O496      1.0  0.66382  0.52548  0.06190  1.0000
  O   O497      1.0  0.92616  0.47452  0.09132  1.0000
  O   O498      1.0  0.66382  0.47452  0.97362  1.0000
  O   O499      1.0  0.75126  0.58096  0.90696  1.0000
  O   O500      1.0  0.48894  0.47904  0.96580  1.0000
  O   O501      1.0  0.75126  0.47904  0.90696  1.0000
  O   O502      1.0  0.48894  0.58096  0.96580  1.0000
  O   O503      1.0  0.75126  0.53000  0.99522  1.0000
  O   O504      1.0  0.48894  0.53000  0.87754  1.0000
  Al  Al309     1.0  0.89228  0.58550  0.84028  1.0000
  Al  Al310     1.0  0.52282  0.58550  0.84028  1.0000
  Al  Al311     1.0  0.78514  0.58550  0.84028  1.0000
  Al  Al312     1.0  0.62996  0.58550  0.84028  1.0000
  Al  Al313     1.0  0.71740  0.64098  0.93636  1.0000
  Al  Al314     1.0  0.87258  0.64098  0.93636  1.0000
  Al  Al315     1.0  0.61026  0.64098  0.93636  1.0000
  Al  Al316     1.0  0.54250  0.69644  0.84028  1.0000
  Al  Al317     1.0  0.69770  0.69644  0.84028  1.0000
  Al  Al318     1.0  0.96002  0.69644  0.84028  1.0000
  Al  Al319     1.0  0.80484  0.69644  0.84028  1.0000
  O   O505      1.0  0.57638  0.63646  0.81086  1.0000
  O   O506      1.0  0.83872  0.70098  0.77360  1.0000
  O   O507      1.0  0.57638  0.70098  0.90696  1.0000
  O   O508      1.0  0.83872  0.63646  0.86970  1.0000
  O   O509      1.0  0.57638  0.58550  0.89912  1.0000
  O   O510      1.0  0.83872  0.58550  0.97364  1.0000
  O   O511      1.0  0.92616  0.69192  0.90694  1.0000
  O   O512      1.0  0.66382  0.59002  0.96578  1.0000
  O   O513      1.0  0.92616  0.59002  0.90694  1.0000
  O   O514      1.0  0.66382  0.69192  0.96580  1.0000
  O   O515      1.0  0.92616  0.64098  0.99522  1.0000
  O   O516      1.0  0.66382  0.64098  0.87752  1.0000
  O   O517      1.0  0.75126  0.74740  0.81086  1.0000
  O   O518      1.0  0.48894  0.64550  0.86970  1.0000
  O   O519      1.0  0.75126  0.64550  0.81086  1.0000
  O   O520      1.0  0.48894  0.74740  0.86970  1.0000
  O   O521      1.0  0.75126  0.69644  0.89912  1.0000
  O   O522      1.0  0.48894  0.69644  0.78144  1.0000
  Al  Al320     1.0  0.89228  0.75194  0.74418  1.0000
  Al  Al321     1.0  0.52282  0.75194  0.74418  1.0000
  Al  Al322     1.0  0.78514  0.75194  0.74418  1.0000
  Al  Al323     1.0  0.62996  0.75194  0.74418  1.0000
  Al  Al324     1.0  0.71740  0.80742  0.84026  1.0000
  Al  Al325     1.0  0.87258  0.80742  0.84026  1.0000
  Al  Al326     1.0  0.61026  0.80742  0.84026  1.0000
  Al  Al327     1.0  0.54250  0.86290  0.74418  1.0000
  Al  Al328     1.0  0.69770  0.86290  0.74418  1.0000
  Al  Al329     1.0  0.96002  0.86290  0.74418  1.0000
  Al  Al330     1.0  0.80484  0.86290  0.74418  1.0000
  O   O523      1.0  0.57638  0.80290  0.71476  1.0000
  O   O524      1.0  0.83872  0.86744  0.67750  1.0000
  O   O525      1.0  0.57638  0.86744  0.81086  1.0000
  O   O526      1.0  0.83872  0.80290  0.77360  1.0000
  O   O527      1.0  0.57638  0.75194  0.80302  1.0000
  O   O528      1.0  0.83872  0.75194  0.87754  1.0000
  O   O529      1.0  0.92616  0.85838  0.81084  1.0000
  O   O530      1.0  0.66382  0.75646  0.86968  1.0000
  O   O531      1.0  0.92616  0.75646  0.81084  1.0000
  O   O532      1.0  0.66382  0.85838  0.86970  1.0000
  O   O533      1.0  0.92616  0.80742  0.89912  1.0000
  O   O534      1.0  0.66382  0.80742  0.78142  1.0000
  O   O535      1.0  0.75126  0.91386  0.71476  1.0000
  O   O536      1.0  0.48894  0.81194  0.77360  1.0000
  O   O537      1.0  0.75126  0.81194  0.71476  1.0000
  O   O538      1.0  0.48894  0.91386  0.77360  1.0000
  O   O539      1.0  0.75126  0.86290  0.80302  1.0000
  O   O540      1.0  0.48894  0.86290  0.68534  1.0000
