data_image0
_chemical_formula_structural       Al12O18Al12O18Al12O18Al12O18Al12O18Al12O18Al12O18Al12O18Al12O18Al12O18Al12O18Al12O18Al12O18Al12O18Al12O18Al12O18Al12O18Al12O18Al12O18Al12O18Al12O18Al12O18Al12O18Al12O18Al12O18Al12O18Al12O18Al12O18Al12O18Al12O18Pd175
_chemical_formula_sum              "Al360 O540 Pd175"
_cell_length_a       50
_cell_length_b       50
_cell_length_c       50
_cell_angle_alpha    90
_cell_angle_beta     90
_cell_angle_gamma    120

_space_group_name_H-M_alt    "P 1"
_space_group_IT_number       1

loop_
  _space_group_symop_operation_xyz
  'x, y, z'

loop_
  _atom_site_type_symbol
  _atom_site_label
  _atom_site_symmetry_multiplicity
  _atom_site_fract_x
  _atom_site_fract_y
  _atom_site_fract_z
  _atom_site_occupancy
  Al  Al1       1.0  0.21300  0.26106  0.30386  1.0000
  Al  Al2       1.0  0.21300  0.26106  0.48859  1.0000
  Al  Al3       1.0  0.21300  0.26106  0.35743  1.0000
  Al  Al4       1.0  0.21300  0.26106  0.43502  1.0000
  Al  Al5       1.0  0.27707  0.29309  0.39130  1.0000
  Al  Al6       1.0  0.27707  0.29309  0.31371  1.0000
  Al  Al7       1.0  0.27707  0.29309  0.44487  1.0000
  Al  Al8       1.0  0.27707  0.29309  0.52247  1.0000
  Al  Al9       1.0  0.24504  0.32512  0.47875  1.0000
  Al  Al10      1.0  0.24504  0.32512  0.40115  1.0000
  Al  Al11      1.0  0.24504  0.32512  0.26999  1.0000
  Al  Al12      1.0  0.24504  0.32512  0.34758  1.0000
  O   O1        1.0  0.21300  0.29048  0.46181  1.0000
  O   O2        1.0  0.21300  0.32773  0.33064  1.0000
  O   O3        1.0  0.27968  0.32773  0.46181  1.0000
  O   O4        1.0  0.24243  0.29048  0.33064  1.0000
  O   O5        1.0  0.24243  0.26106  0.46181  1.0000
  O   O6        1.0  0.27968  0.26106  0.33064  1.0000
  O   O7        1.0  0.27707  0.32251  0.28692  1.0000
  O   O8        1.0  0.27707  0.26367  0.41809  1.0000
  O   O9        1.0  0.24765  0.26367  0.28692  1.0000
  O   O10       1.0  0.30649  0.32251  0.41809  1.0000
  O   O11       1.0  0.30649  0.29309  0.28692  1.0000
  O   O12       1.0  0.24765  0.29309  0.41809  1.0000
  O   O13       1.0  0.24504  0.35454  0.37437  1.0000
  O   O14       1.0  0.24504  0.29570  0.50553  1.0000
  O   O15       1.0  0.21562  0.29570  0.37437  1.0000
  O   O16       1.0  0.27446  0.35454  0.50553  1.0000
  O   O17       1.0  0.27446  0.32512  0.37437  1.0000
  O   O18       1.0  0.21562  0.32512  0.50553  1.0000
  Al  Al13      1.0  0.21300  0.35716  0.30386  1.0000
  Al  Al14      1.0  0.21300  0.35716  0.48859  1.0000
  Al  Al15      1.0  0.21300  0.35716  0.35743  1.0000
  Al  Al16      1.0  0.21300  0.35716  0.43502  1.0000
  Al  Al17      1.0  0.27707  0.38919  0.39130  1.0000
  Al  Al18      1.0  0.27707  0.38919  0.31371  1.0000
  Al  Al19      1.0  0.27707  0.38919  0.44487  1.0000
  Al  Al20      1.0  0.27707  0.38919  0.52247  1.0000
  Al  Al21      1.0  0.24504  0.42122  0.47875  1.0000
  Al  Al22      1.0  0.24504  0.42122  0.40115  1.0000
  Al  Al23      1.0  0.24504  0.42122  0.26999  1.0000
  Al  Al24      1.0  0.24504  0.42122  0.34758  1.0000
  O   O19       1.0  0.21300  0.38658  0.46181  1.0000
  O   O20       1.0  0.21300  0.42384  0.33064  1.0000
  O   O21       1.0  0.27968  0.42384  0.46181  1.0000
  O   O22       1.0  0.24243  0.38658  0.33064  1.0000
  O   O23       1.0  0.24243  0.35716  0.46181  1.0000
  O   O24       1.0  0.27968  0.35716  0.33064  1.0000
  O   O25       1.0  0.27707  0.41861  0.28692  1.0000
  O   O26       1.0  0.27707  0.35977  0.41809  1.0000
  O   O27       1.0  0.24765  0.35977  0.28692  1.0000
  O   O28       1.0  0.30649  0.41861  0.41809  1.0000
  O   O29       1.0  0.30649  0.38919  0.28692  1.0000
  O   O30       1.0  0.24765  0.38919  0.41809  1.0000
  O   O31       1.0  0.24504  0.45064  0.37437  1.0000
  O   O32       1.0  0.24504  0.39180  0.50553  1.0000
  O   O33       1.0  0.21562  0.39180  0.37437  1.0000
  O   O34       1.0  0.27446  0.45064  0.50553  1.0000
  O   O35       1.0  0.27446  0.42122  0.37437  1.0000
  O   O36       1.0  0.21562  0.42122  0.50553  1.0000
  Al  Al25      1.0  0.21300  0.45326  0.30386  1.0000
  Al  Al26      1.0  0.21300  0.45326  0.48859  1.0000
  Al  Al27      1.0  0.21300  0.45326  0.35743  1.0000
  Al  Al28      1.0  0.21300  0.45326  0.43502  1.0000
  Al  Al29      1.0  0.27707  0.48529  0.39130  1.0000
  Al  Al30      1.0  0.27707  0.48529  0.31371  1.0000
  Al  Al31      1.0  0.27707  0.48529  0.44487  1.0000
  Al  Al32      1.0  0.27707  0.48529  0.52247  1.0000
  Al  Al33      1.0  0.24504  0.51732  0.47875  1.0000
  Al  Al34      1.0  0.24504  0.51732  0.40115  1.0000
  Al  Al35      1.0  0.24504  0.51732  0.26999  1.0000
  Al  Al36      1.0  0.24504  0.51732  0.34758  1.0000
  O   O37       1.0  0.21300  0.48268  0.46181  1.0000
  O   O38       1.0  0.21300  0.51994  0.33064  1.0000
  O   O39       1.0  0.27968  0.51994  0.46181  1.0000
  O   O40       1.0  0.24243  0.48268  0.33064  1.0000
  O   O41       1.0  0.24243  0.45326  0.46181  1.0000
  O   O42       1.0  0.27968  0.45326  0.33064  1.0000
  O   O43       1.0  0.27707  0.51471  0.28692  1.0000
  O   O44       1.0  0.27707  0.45587  0.41809  1.0000
  O   O45       1.0  0.24765  0.45587  0.28692  1.0000
  O   O46       1.0  0.30649  0.51471  0.41809  1.0000
  O   O47       1.0  0.30649  0.48529  0.28692  1.0000
  O   O48       1.0  0.24765  0.48529  0.41809  1.0000
  O   O49       1.0  0.24504  0.54674  0.37437  1.0000
  O   O50       1.0  0.24504  0.48790  0.50553  1.0000
  O   O51       1.0  0.21562  0.48790  0.37437  1.0000
  O   O52       1.0  0.27446  0.54674  0.50553  1.0000
  O   O53       1.0  0.27446  0.51732  0.37437  1.0000
  O   O54       1.0  0.21562  0.51732  0.50553  1.0000
  Al  Al37      1.0  0.21300  0.54936  0.30386  1.0000
  Al  Al38      1.0  0.21300  0.54936  0.48859  1.0000
  Al  Al39      1.0  0.21300  0.54936  0.35743  1.0000
  Al  Al40      1.0  0.21300  0.54936  0.43502  1.0000
  Al  Al41      1.0  0.27707  0.58139  0.39130  1.0000
  Al  Al42      1.0  0.27707  0.58139  0.31371  1.0000
  Al  Al43      1.0  0.27707  0.58139  0.44487  1.0000
  Al  Al44      1.0  0.27707  0.58139  0.52247  1.0000
  Al  Al45      1.0  0.24504  0.61342  0.47875  1.0000
  Al  Al46      1.0  0.24504  0.61342  0.40115  1.0000
  Al  Al47      1.0  0.24504  0.61342  0.26999  1.0000
  Al  Al48      1.0  0.24504  0.61342  0.34758  1.0000
  O   O55       1.0  0.21300  0.57878  0.46181  1.0000
  O   O56       1.0  0.21300  0.61604  0.33064  1.0000
  O   O57       1.0  0.27968  0.61604  0.46181  1.0000
  O   O58       1.0  0.24243  0.57878  0.33064  1.0000
  O   O59       1.0  0.24243  0.54936  0.46181  1.0000
  O   O60       1.0  0.27968  0.54936  0.33064  1.0000
  O   O61       1.0  0.27707  0.61081  0.28692  1.0000
  O   O62       1.0  0.27707  0.55197  0.41809  1.0000
  O   O63       1.0  0.24765  0.55197  0.28692  1.0000
  O   O64       1.0  0.30649  0.61081  0.41809  1.0000
  O   O65       1.0  0.30649  0.58139  0.28692  1.0000
  O   O66       1.0  0.24765  0.58139  0.41809  1.0000
  O   O67       1.0  0.24504  0.64284  0.37437  1.0000
  O   O68       1.0  0.24504  0.58400  0.50553  1.0000
  O   O69       1.0  0.21562  0.58400  0.37437  1.0000
  O   O70       1.0  0.27446  0.64284  0.50553  1.0000
  O   O71       1.0  0.27446  0.61342  0.37437  1.0000
  O   O72       1.0  0.21562  0.61342  0.50553  1.0000
  Al  Al49      1.0  0.21300  0.64546  0.30386  1.0000
  Al  Al50      1.0  0.21300  0.64546  0.48859  1.0000
  Al  Al51      1.0  0.21300  0.64546  0.35743  1.0000
  Al  Al52      1.0  0.21300  0.64546  0.43502  1.0000
  Al  Al53      1.0  0.27707  0.67749  0.39130  1.0000
  Al  Al54      1.0  0.27707  0.67749  0.31371  1.0000
  Al  Al55      1.0  0.27707  0.67749  0.44487  1.0000
  Al  Al56      1.0  0.27707  0.67749  0.52247  1.0000
  Al  Al57      1.0  0.24504  0.70952  0.47875  1.0000
  Al  Al58      1.0  0.24504  0.70952  0.40115  1.0000
  Al  Al59      1.0  0.24504  0.70952  0.26999  1.0000
  Al  Al60      1.0  0.24504  0.70952  0.34758  1.0000
  O   O73       1.0  0.21300  0.67488  0.46181  1.0000
  O   O74       1.0  0.21300  0.71214  0.33064  1.0000
  O   O75       1.0  0.27968  0.71214  0.46181  1.0000
  O   O76       1.0  0.24243  0.67488  0.33064  1.0000
  O   O77       1.0  0.24243  0.64546  0.46181  1.0000
  O   O78       1.0  0.27968  0.64546  0.33064  1.0000
  O   O79       1.0  0.27707  0.70691  0.28692  1.0000
  O   O80       1.0  0.27707  0.64807  0.41809  1.0000
  O   O81       1.0  0.24765  0.64807  0.28692  1.0000
  O   O82       1.0  0.30649  0.70691  0.41809  1.0000
  O   O83       1.0  0.30649  0.67749  0.28692  1.0000
  O   O84       1.0  0.24765  0.67749  0.41809  1.0000
  O   O85       1.0  0.24504  0.73894  0.37437  1.0000
  O   O86       1.0  0.24504  0.68010  0.50553  1.0000
  O   O87       1.0  0.21562  0.68010  0.37437  1.0000
  O   O88       1.0  0.27446  0.73894  0.50553  1.0000
  O   O89       1.0  0.27446  0.70952  0.37437  1.0000
  O   O90       1.0  0.21562  0.70952  0.50553  1.0000
  Al  Al61      1.0  0.30911  0.26106  0.30386  1.0000
  Al  Al62      1.0  0.30911  0.26106  0.48859  1.0000
  Al  Al63      1.0  0.30911  0.26106  0.35743  1.0000
  Al  Al64      1.0  0.30911  0.26106  0.43502  1.0000
  Al  Al65      1.0  0.37317  0.29309  0.39130  1.0000
  Al  Al66      1.0  0.37317  0.29309  0.31371  1.0000
  Al  Al67      1.0  0.37317  0.29309  0.44487  1.0000
  Al  Al68      1.0  0.37317  0.29309  0.52247  1.0000
  Al  Al69      1.0  0.34114  0.32512  0.47875  1.0000
  Al  Al70      1.0  0.34114  0.32512  0.40115  1.0000
  Al  Al71      1.0  0.34114  0.32512  0.26999  1.0000
  Al  Al72      1.0  0.34114  0.32512  0.34758  1.0000
  O   O91       1.0  0.30911  0.29048  0.46181  1.0000
  O   O92       1.0  0.30911  0.32773  0.33064  1.0000
  O   O93       1.0  0.37579  0.32773  0.46181  1.0000
  O   O94       1.0  0.33853  0.29048  0.33064  1.0000
  O   O95       1.0  0.33853  0.26106  0.46181  1.0000
  O   O96       1.0  0.37579  0.26106  0.33064  1.0000
  O   O97       1.0  0.37317  0.32251  0.28692  1.0000
  O   O98       1.0  0.37317  0.26367  0.41809  1.0000
  O   O99       1.0  0.34375  0.26367  0.28692  1.0000
  O   O100      1.0  0.40259  0.32251  0.41809  1.0000
  O   O101      1.0  0.40259  0.29309  0.28692  1.0000
  O   O102      1.0  0.34375  0.29309  0.41809  1.0000
  O   O103      1.0  0.34114  0.35454  0.37437  1.0000
  O   O104      1.0  0.34114  0.29570  0.50553  1.0000
  O   O105      1.0  0.31172  0.29570  0.37437  1.0000
  O   O106      1.0  0.37056  0.35454  0.50553  1.0000
  O   O107      1.0  0.37056  0.32512  0.37437  1.0000
  O   O108      1.0  0.31172  0.32512  0.50553  1.0000
  Al  Al73      1.0  0.30911  0.35716  0.30386  1.0000
  Al  Al74      1.0  0.30911  0.35716  0.48859  1.0000
  Al  Al75      1.0  0.30911  0.35716  0.35743  1.0000
  Al  Al76      1.0  0.30911  0.35716  0.43502  1.0000
  Al  Al77      1.0  0.37317  0.38919  0.39130  1.0000
  Al  Al78      1.0  0.37317  0.38919  0.31371  1.0000
  Al  Al79      1.0  0.37317  0.38919  0.44487  1.0000
  Al  Al80      1.0  0.37317  0.38919  0.52247  1.0000
  Al  Al81      1.0  0.34114  0.42122  0.47875  1.0000
  Al  Al82      1.0  0.34114  0.42122  0.40115  1.0000
  Al  Al83      1.0  0.34114  0.42122  0.26999  1.0000
  Al  Al84      1.0  0.34114  0.42122  0.34758  1.0000
  O   O109      1.0  0.30911  0.38658  0.46181  1.0000
  O   O110      1.0  0.30911  0.42384  0.33064  1.0000
  O   O111      1.0  0.37579  0.42384  0.46181  1.0000
  O   O112      1.0  0.33853  0.38658  0.33064  1.0000
  O   O113      1.0  0.33853  0.35716  0.46181  1.0000
  O   O114      1.0  0.37579  0.35716  0.33064  1.0000
  O   O115      1.0  0.37317  0.41861  0.28692  1.0000
  O   O116      1.0  0.37317  0.35977  0.41809  1.0000
  O   O117      1.0  0.34375  0.35977  0.28692  1.0000
  O   O118      1.0  0.40259  0.41861  0.41809  1.0000
  O   O119      1.0  0.40259  0.38919  0.28692  1.0000
  O   O120      1.0  0.34375  0.38919  0.41809  1.0000
  O   O121      1.0  0.34114  0.45064  0.37437  1.0000
  O   O122      1.0  0.34114  0.39180  0.50553  1.0000
  O   O123      1.0  0.31172  0.39180  0.37437  1.0000
  O   O124      1.0  0.37056  0.45064  0.50553  1.0000
  O   O125      1.0  0.37056  0.42122  0.37437  1.0000
  O   O126      1.0  0.31172  0.42122  0.50553  1.0000
  Al  Al85      1.0  0.30911  0.45326  0.30386  1.0000
  Al  Al86      1.0  0.30911  0.45326  0.48859  1.0000
  Al  Al87      1.0  0.30911  0.45326  0.35743  1.0000
  Al  Al88      1.0  0.30911  0.45326  0.43502  1.0000
  Al  Al89      1.0  0.37317  0.48529  0.39130  1.0000
  Al  Al90      1.0  0.37317  0.48529  0.31371  1.0000
  Al  Al91      1.0  0.37317  0.48529  0.44487  1.0000
  Al  Al92      1.0  0.37317  0.48529  0.52247  1.0000
  Al  Al93      1.0  0.34114  0.51732  0.47875  1.0000
  Al  Al94      1.0  0.34114  0.51732  0.40115  1.0000
  Al  Al95      1.0  0.34114  0.51732  0.26999  1.0000
  Al  Al96      1.0  0.34114  0.51732  0.34758  1.0000
  O   O127      1.0  0.30911  0.48268  0.46181  1.0000
  O   O128      1.0  0.30911  0.51994  0.33064  1.0000
  O   O129      1.0  0.37579  0.51994  0.46181  1.0000
  O   O130      1.0  0.33853  0.48268  0.33064  1.0000
  O   O131      1.0  0.33853  0.45326  0.46181  1.0000
  O   O132      1.0  0.37579  0.45326  0.33064  1.0000
  O   O133      1.0  0.37317  0.51471  0.28692  1.0000
  O   O134      1.0  0.37317  0.45587  0.41809  1.0000
  O   O135      1.0  0.34375  0.45587  0.28692  1.0000
  O   O136      1.0  0.40259  0.51471  0.41809  1.0000
  O   O137      1.0  0.40259  0.48529  0.28692  1.0000
  O   O138      1.0  0.34375  0.48529  0.41809  1.0000
  O   O139      1.0  0.34114  0.54674  0.37437  1.0000
  O   O140      1.0  0.34114  0.48790  0.50553  1.0000
  O   O141      1.0  0.31172  0.48790  0.37437  1.0000
  O   O142      1.0  0.37056  0.54674  0.50553  1.0000
  O   O143      1.0  0.37056  0.51732  0.37437  1.0000
  O   O144      1.0  0.31172  0.51732  0.50553  1.0000
  Al  Al97      1.0  0.30911  0.54936  0.30386  1.0000
  Al  Al98      1.0  0.30911  0.54936  0.48859  1.0000
  Al  Al99      1.0  0.30911  0.54936  0.35743  1.0000
  Al  Al100     1.0  0.30911  0.54936  0.43502  1.0000
  Al  Al101     1.0  0.37317  0.58139  0.39130  1.0000
  Al  Al102     1.0  0.37317  0.58139  0.31371  1.0000
  Al  Al103     1.0  0.37317  0.58139  0.44487  1.0000
  Al  Al104     1.0  0.37317  0.58139  0.52247  1.0000
  Al  Al105     1.0  0.34114  0.61342  0.47875  1.0000
  Al  Al106     1.0  0.34114  0.61342  0.40115  1.0000
  Al  Al107     1.0  0.34114  0.61342  0.26999  1.0000
  Al  Al108     1.0  0.34114  0.61342  0.34758  1.0000
  O   O145      1.0  0.30911  0.57878  0.46181  1.0000
  O   O146      1.0  0.30911  0.61604  0.33064  1.0000
  O   O147      1.0  0.37579  0.61604  0.46181  1.0000
  O   O148      1.0  0.33853  0.57878  0.33064  1.0000
  O   O149      1.0  0.33853  0.54936  0.46181  1.0000
  O   O150      1.0  0.37579  0.54936  0.33064  1.0000
  O   O151      1.0  0.37317  0.61081  0.28692  1.0000
  O   O152      1.0  0.37317  0.55197  0.41809  1.0000
  O   O153      1.0  0.34375  0.55197  0.28692  1.0000
  O   O154      1.0  0.40259  0.61081  0.41809  1.0000
  O   O155      1.0  0.40259  0.58139  0.28692  1.0000
  O   O156      1.0  0.34375  0.58139  0.41809  1.0000
  O   O157      1.0  0.34114  0.64284  0.37437  1.0000
  O   O158      1.0  0.34114  0.58400  0.50553  1.0000
  O   O159      1.0  0.31172  0.58400  0.37437  1.0000
  O   O160      1.0  0.37056  0.64284  0.50553  1.0000
  O   O161      1.0  0.37056  0.61342  0.37437  1.0000
  O   O162      1.0  0.31172  0.61342  0.50553  1.0000
  Al  Al109     1.0  0.30911  0.64546  0.30386  1.0000
  Al  Al110     1.0  0.30911  0.64546  0.48859  1.0000
  Al  Al111     1.0  0.30911  0.64546  0.35743  1.0000
  Al  Al112     1.0  0.30911  0.64546  0.43502  1.0000
  Al  Al113     1.0  0.37317  0.67749  0.39130  1.0000
  Al  Al114     1.0  0.37317  0.67749  0.31371  1.0000
  Al  Al115     1.0  0.37317  0.67749  0.44487  1.0000
  Al  Al116     1.0  0.37317  0.67749  0.52247  1.0000
  Al  Al117     1.0  0.34114  0.70952  0.47875  1.0000
  Al  Al118     1.0  0.34114  0.70952  0.40115  1.0000
  Al  Al119     1.0  0.34114  0.70952  0.26999  1.0000
  Al  Al120     1.0  0.34114  0.70952  0.34758  1.0000
  O   O163      1.0  0.30911  0.67488  0.46181  1.0000
  O   O164      1.0  0.30911  0.71214  0.33064  1.0000
  O   O165      1.0  0.37579  0.71214  0.46181  1.0000
  O   O166      1.0  0.33853  0.67488  0.33064  1.0000
  O   O167      1.0  0.33853  0.64546  0.46181  1.0000
  O   O168      1.0  0.37579  0.64546  0.33064  1.0000
  O   O169      1.0  0.37317  0.70691  0.28692  1.0000
  O   O170      1.0  0.37317  0.64807  0.41809  1.0000
  O   O171      1.0  0.34375  0.64807  0.28692  1.0000
  O   O172      1.0  0.40259  0.70691  0.41809  1.0000
  O   O173      1.0  0.40259  0.67749  0.28692  1.0000
  O   O174      1.0  0.34375  0.67749  0.41809  1.0000
  O   O175      1.0  0.34114  0.73894  0.37437  1.0000
  O   O176      1.0  0.34114  0.68010  0.50553  1.0000
  O   O177      1.0  0.31172  0.68010  0.37437  1.0000
  O   O178      1.0  0.37056  0.73894  0.50553  1.0000
  O   O179      1.0  0.37056  0.70952  0.37437  1.0000
  O   O180      1.0  0.31172  0.70952  0.50553  1.0000
  Al  Al121     1.0  0.40521  0.26106  0.30386  1.0000
  Al  Al122     1.0  0.40521  0.26106  0.48859  1.0000
  Al  Al123     1.0  0.40521  0.26106  0.35743  1.0000
  Al  Al124     1.0  0.40521  0.26106  0.43502  1.0000
  Al  Al125     1.0  0.46927  0.29309  0.39130  1.0000
  Al  Al126     1.0  0.46927  0.29309  0.31371  1.0000
  Al  Al127     1.0  0.46927  0.29309  0.44487  1.0000
  Al  Al128     1.0  0.46927  0.29309  0.52247  1.0000
  Al  Al129     1.0  0.43724  0.32512  0.47875  1.0000
  Al  Al130     1.0  0.43724  0.32512  0.40115  1.0000
  Al  Al131     1.0  0.43724  0.32512  0.26999  1.0000
  Al  Al132     1.0  0.43724  0.32512  0.34758  1.0000
  O   O181      1.0  0.40521  0.29048  0.46181  1.0000
  O   O182      1.0  0.40521  0.32773  0.33064  1.0000
  O   O183      1.0  0.47189  0.32773  0.46181  1.0000
  O   O184      1.0  0.43463  0.29048  0.33064  1.0000
  O   O185      1.0  0.43463  0.26106  0.46181  1.0000
  O   O186      1.0  0.47189  0.26106  0.33064  1.0000
  O   O187      1.0  0.46927  0.32251  0.28692  1.0000
  O   O188      1.0  0.46927  0.26367  0.41809  1.0000
  O   O189      1.0  0.43985  0.26367  0.28692  1.0000
  O   O190      1.0  0.49869  0.32251  0.41809  1.0000
  O   O191      1.0  0.49869  0.29309  0.28692  1.0000
  O   O192      1.0  0.43985  0.29309  0.41809  1.0000
  O   O193      1.0  0.43724  0.35454  0.37437  1.0000
  O   O194      1.0  0.43724  0.29570  0.50553  1.0000
  O   O195      1.0  0.40782  0.29570  0.37437  1.0000
  O   O196      1.0  0.46666  0.35454  0.50553  1.0000
  O   O197      1.0  0.46666  0.32512  0.37437  1.0000
  O   O198      1.0  0.40782  0.32512  0.50553  1.0000
  Al  Al133     1.0  0.40521  0.35716  0.30386  1.0000
  Al  Al134     1.0  0.40521  0.35716  0.48859  1.0000
  Al  Al135     1.0  0.40521  0.35716  0.35743  1.0000
  Al  Al136     1.0  0.40521  0.35716  0.43502  1.0000
  Al  Al137     1.0  0.46927  0.38919  0.39130  1.0000
  Al  Al138     1.0  0.46927  0.38919  0.31371  1.0000
  Al  Al139     1.0  0.46927  0.38919  0.44487  1.0000
  Al  Al140     1.0  0.46927  0.38919  0.52247  1.0000
  Al  Al141     1.0  0.43724  0.42122  0.47875  1.0000
  Al  Al142     1.0  0.43724  0.42122  0.40115  1.0000
  Al  Al143     1.0  0.43724  0.42122  0.26999  1.0000
  Al  Al144     1.0  0.43724  0.42122  0.34758  1.0000
  O   O199      1.0  0.40521  0.38658  0.46181  1.0000
  O   O200      1.0  0.40521  0.42384  0.33064  1.0000
  O   O201      1.0  0.47189  0.42384  0.46181  1.0000
  O   O202      1.0  0.43463  0.38658  0.33064  1.0000
  O   O203      1.0  0.43463  0.35716  0.46181  1.0000
  O   O204      1.0  0.47189  0.35716  0.33064  1.0000
  O   O205      1.0  0.46927  0.41861  0.28692  1.0000
  O   O206      1.0  0.46927  0.35977  0.41809  1.0000
  O   O207      1.0  0.43985  0.35977  0.28692  1.0000
  O   O208      1.0  0.49869  0.41861  0.41809  1.0000
  O   O209      1.0  0.49869  0.38919  0.28692  1.0000
  O   O210      1.0  0.43985  0.38919  0.41809  1.0000
  O   O211      1.0  0.43724  0.45064  0.37437  1.0000
  O   O212      1.0  0.43724  0.39180  0.50553  1.0000
  O   O213      1.0  0.40782  0.39180  0.37437  1.0000
  O   O214      1.0  0.46666  0.45064  0.50553  1.0000
  O   O215      1.0  0.46666  0.42122  0.37437  1.0000
  O   O216      1.0  0.40782  0.42122  0.50553  1.0000
  Al  Al145     1.0  0.40521  0.45326  0.30386  1.0000
  Al  Al146     1.0  0.40521  0.45326  0.48859  1.0000
  Al  Al147     1.0  0.40521  0.45326  0.35743  1.0000
  Al  Al148     1.0  0.40521  0.45326  0.43502  1.0000
  Al  Al149     1.0  0.46927  0.48529  0.39130  1.0000
  Al  Al150     1.0  0.46927  0.48529  0.31371  1.0000
  Al  Al151     1.0  0.46927  0.48529  0.44487  1.0000
  Al  Al152     1.0  0.46927  0.48529  0.52247  1.0000
  Al  Al153     1.0  0.43724  0.51732  0.47875  1.0000
  Al  Al154     1.0  0.43724  0.51732  0.40115  1.0000
  Al  Al155     1.0  0.43724  0.51732  0.26999  1.0000
  Al  Al156     1.0  0.43724  0.51732  0.34758  1.0000
  O   O217      1.0  0.40521  0.48268  0.46181  1.0000
  O   O218      1.0  0.40521  0.51994  0.33064  1.0000
  O   O219      1.0  0.47189  0.51994  0.46181  1.0000
  O   O220      1.0  0.43463  0.48268  0.33064  1.0000
  O   O221      1.0  0.43463  0.45326  0.46181  1.0000
  O   O222      1.0  0.47189  0.45326  0.33064  1.0000
  O   O223      1.0  0.46927  0.51471  0.28692  1.0000
  O   O224      1.0  0.46927  0.45587  0.41809  1.0000
  O   O225      1.0  0.43985  0.45587  0.28692  1.0000
  O   O226      1.0  0.49869  0.51471  0.41809  1.0000
  O   O227      1.0  0.49869  0.48529  0.28692  1.0000
  O   O228      1.0  0.43985  0.48529  0.41809  1.0000
  O   O229      1.0  0.43724  0.54674  0.37437  1.0000
  O   O230      1.0  0.43724  0.48790  0.50553  1.0000
  O   O231      1.0  0.40782  0.48790  0.37437  1.0000
  O   O232      1.0  0.46666  0.54674  0.50553  1.0000
  O   O233      1.0  0.46666  0.51732  0.37437  1.0000
  O   O234      1.0  0.40782  0.51732  0.50553  1.0000
  Al  Al157     1.0  0.40521  0.54936  0.30386  1.0000
  Al  Al158     1.0  0.40521  0.54936  0.48859  1.0000
  Al  Al159     1.0  0.40521  0.54936  0.35743  1.0000
  Al  Al160     1.0  0.40521  0.54936  0.43502  1.0000
  Al  Al161     1.0  0.46927  0.58139  0.39130  1.0000
  Al  Al162     1.0  0.46927  0.58139  0.31371  1.0000
  Al  Al163     1.0  0.46927  0.58139  0.44487  1.0000
  Al  Al164     1.0  0.46927  0.58139  0.52247  1.0000
  Al  Al165     1.0  0.43724  0.61342  0.47875  1.0000
  Al  Al166     1.0  0.43724  0.61342  0.40115  1.0000
  Al  Al167     1.0  0.43724  0.61342  0.26999  1.0000
  Al  Al168     1.0  0.43724  0.61342  0.34758  1.0000
  O   O235      1.0  0.40521  0.57878  0.46181  1.0000
  O   O236      1.0  0.40521  0.61604  0.33064  1.0000
  O   O237      1.0  0.47189  0.61604  0.46181  1.0000
  O   O238      1.0  0.43463  0.57878  0.33064  1.0000
  O   O239      1.0  0.43463  0.54936  0.46181  1.0000
  O   O240      1.0  0.47189  0.54936  0.33064  1.0000
  O   O241      1.0  0.46927  0.61081  0.28692  1.0000
  O   O242      1.0  0.46927  0.55197  0.41809  1.0000
  O   O243      1.0  0.43985  0.55197  0.28692  1.0000
  O   O244      1.0  0.49869  0.61081  0.41809  1.0000
  O   O245      1.0  0.49869  0.58139  0.28692  1.0000
  O   O246      1.0  0.43985  0.58139  0.41809  1.0000
  O   O247      1.0  0.43724  0.64284  0.37437  1.0000
  O   O248      1.0  0.43724  0.58400  0.50553  1.0000
  O   O249      1.0  0.40782  0.58400  0.37437  1.0000
  O   O250      1.0  0.46666  0.64284  0.50553  1.0000
  O   O251      1.0  0.46666  0.61342  0.37437  1.0000
  O   O252      1.0  0.40782  0.61342  0.50553  1.0000
  Al  Al169     1.0  0.40521  0.64546  0.30386  1.0000
  Al  Al170     1.0  0.40521  0.64546  0.48859  1.0000
  Al  Al171     1.0  0.40521  0.64546  0.35743  1.0000
  Al  Al172     1.0  0.40521  0.64546  0.43502  1.0000
  Al  Al173     1.0  0.46927  0.67749  0.39130  1.0000
  Al  Al174     1.0  0.46927  0.67749  0.31371  1.0000
  Al  Al175     1.0  0.46927  0.67749  0.44487  1.0000
  Al  Al176     1.0  0.46927  0.67749  0.52247  1.0000
  Al  Al177     1.0  0.43724  0.70952  0.47875  1.0000
  Al  Al178     1.0  0.43724  0.70952  0.40115  1.0000
  Al  Al179     1.0  0.43724  0.70952  0.26999  1.0000
  Al  Al180     1.0  0.43724  0.70952  0.34758  1.0000
  O   O253      1.0  0.40521  0.67488  0.46181  1.0000
  O   O254      1.0  0.40521  0.71214  0.33064  1.0000
  O   O255      1.0  0.47189  0.71214  0.46181  1.0000
  O   O256      1.0  0.43463  0.67488  0.33064  1.0000
  O   O257      1.0  0.43463  0.64546  0.46181  1.0000
  O   O258      1.0  0.47189  0.64546  0.33064  1.0000
  O   O259      1.0  0.46927  0.70691  0.28692  1.0000
  O   O260      1.0  0.46927  0.64807  0.41809  1.0000
  O   O261      1.0  0.43985  0.64807  0.28692  1.0000
  O   O262      1.0  0.49869  0.70691  0.41809  1.0000
  O   O263      1.0  0.49869  0.67749  0.28692  1.0000
  O   O264      1.0  0.43985  0.67749  0.41809  1.0000
  O   O265      1.0  0.43724  0.73894  0.37437  1.0000
  O   O266      1.0  0.43724  0.68010  0.50553  1.0000
  O   O267      1.0  0.40782  0.68010  0.37437  1.0000
  O   O268      1.0  0.46666  0.73894  0.50553  1.0000
  O   O269      1.0  0.46666  0.70952  0.37437  1.0000
  O   O270      1.0  0.40782  0.70952  0.50553  1.0000
  Al  Al181     1.0  0.50131  0.26106  0.30386  1.0000
  Al  Al182     1.0  0.50131  0.26106  0.48859  1.0000
  Al  Al183     1.0  0.50131  0.26106  0.35743  1.0000
  Al  Al184     1.0  0.50131  0.26106  0.43502  1.0000
  Al  Al185     1.0  0.56537  0.29309  0.39130  1.0000
  Al  Al186     1.0  0.56537  0.29309  0.31371  1.0000
  Al  Al187     1.0  0.56537  0.29309  0.44487  1.0000
  Al  Al188     1.0  0.56537  0.29309  0.52247  1.0000
  Al  Al189     1.0  0.53334  0.32512  0.47875  1.0000
  Al  Al190     1.0  0.53334  0.32512  0.40115  1.0000
  Al  Al191     1.0  0.53334  0.32512  0.26999  1.0000
  Al  Al192     1.0  0.53334  0.32512  0.34758  1.0000
  O   O271      1.0  0.50131  0.29048  0.46181  1.0000
  O   O272      1.0  0.50131  0.32773  0.33064  1.0000
  O   O273      1.0  0.56799  0.32773  0.46181  1.0000
  O   O274      1.0  0.53073  0.29048  0.33064  1.0000
  O   O275      1.0  0.53073  0.26106  0.46181  1.0000
  O   O276      1.0  0.56799  0.26106  0.33064  1.0000
  O   O277      1.0  0.56537  0.32251  0.28692  1.0000
  O   O278      1.0  0.56537  0.26367  0.41809  1.0000
  O   O279      1.0  0.53595  0.26367  0.28692  1.0000
  O   O280      1.0  0.59479  0.32251  0.41809  1.0000
  O   O281      1.0  0.59479  0.29309  0.28692  1.0000
  O   O282      1.0  0.53595  0.29309  0.41809  1.0000
  O   O283      1.0  0.53334  0.35454  0.37437  1.0000
  O   O284      1.0  0.53334  0.29570  0.50553  1.0000
  O   O285      1.0  0.50392  0.29570  0.37437  1.0000
  O   O286      1.0  0.56276  0.35454  0.50553  1.0000
  O   O287      1.0  0.56276  0.32512  0.37437  1.0000
  O   O288      1.0  0.50392  0.32512  0.50553  1.0000
  Al  Al193     1.0  0.50131  0.35716  0.30386  1.0000
  Al  Al194     1.0  0.50131  0.35716  0.48859  1.0000
  Al  Al195     1.0  0.50131  0.35716  0.35743  1.0000
  Al  Al196     1.0  0.50131  0.35716  0.43502  1.0000
  Al  Al197     1.0  0.56537  0.38919  0.39130  1.0000
  Al  Al198     1.0  0.56537  0.38919  0.31371  1.0000
  Al  Al199     1.0  0.56537  0.38919  0.44487  1.0000
  Al  Al200     1.0  0.56537  0.38919  0.52247  1.0000
  Al  Al201     1.0  0.53334  0.42122  0.47875  1.0000
  Al  Al202     1.0  0.53334  0.42122  0.40115  1.0000
  Al  Al203     1.0  0.53334  0.42122  0.26999  1.0000
  Al  Al204     1.0  0.53334  0.42122  0.34758  1.0000
  O   O289      1.0  0.50131  0.38658  0.46181  1.0000
  O   O290      1.0  0.50131  0.42384  0.33064  1.0000
  O   O291      1.0  0.56799  0.42384  0.46181  1.0000
  O   O292      1.0  0.53073  0.38658  0.33064  1.0000
  O   O293      1.0  0.53073  0.35716  0.46181  1.0000
  O   O294      1.0  0.56799  0.35716  0.33064  1.0000
  O   O295      1.0  0.56537  0.41861  0.28692  1.0000
  O   O296      1.0  0.56537  0.35977  0.41809  1.0000
  O   O297      1.0  0.53595  0.35977  0.28692  1.0000
  O   O298      1.0  0.59479  0.41861  0.41809  1.0000
  O   O299      1.0  0.59479  0.38919  0.28692  1.0000
  O   O300      1.0  0.53595  0.38919  0.41809  1.0000
  O   O301      1.0  0.53334  0.45064  0.37437  1.0000
  O   O302      1.0  0.53334  0.39180  0.50553  1.0000
  O   O303      1.0  0.50392  0.39180  0.37437  1.0000
  O   O304      1.0  0.56276  0.45064  0.50553  1.0000
  O   O305      1.0  0.56276  0.42122  0.37437  1.0000
  O   O306      1.0  0.50392  0.42122  0.50553  1.0000
  Al  Al205     1.0  0.50131  0.45326  0.30386  1.0000
  Al  Al206     1.0  0.50131  0.45326  0.48859  1.0000
  Al  Al207     1.0  0.50131  0.45326  0.35743  1.0000
  Al  Al208     1.0  0.50131  0.45326  0.43502  1.0000
  Al  Al209     1.0  0.56537  0.48529  0.39130  1.0000
  Al  Al210     1.0  0.56537  0.48529  0.31371  1.0000
  Al  Al211     1.0  0.56537  0.48529  0.44487  1.0000
  Al  Al212     1.0  0.56537  0.48529  0.52247  1.0000
  Al  Al213     1.0  0.53334  0.51732  0.47875  1.0000
  Al  Al214     1.0  0.53334  0.51732  0.40115  1.0000
  Al  Al215     1.0  0.53334  0.51732  0.26999  1.0000
  Al  Al216     1.0  0.53334  0.51732  0.34758  1.0000
  O   O307      1.0  0.50131  0.48268  0.46181  1.0000
  O   O308      1.0  0.50131  0.51994  0.33064  1.0000
  O   O309      1.0  0.56799  0.51994  0.46181  1.0000
  O   O310      1.0  0.53073  0.48268  0.33064  1.0000
  O   O311      1.0  0.53073  0.45326  0.46181  1.0000
  O   O312      1.0  0.56799  0.45326  0.33064  1.0000
  O   O313      1.0  0.56537  0.51471  0.28692  1.0000
  O   O314      1.0  0.56537  0.45587  0.41809  1.0000
  O   O315      1.0  0.53595  0.45587  0.28692  1.0000
  O   O316      1.0  0.59479  0.51471  0.41809  1.0000
  O   O317      1.0  0.59479  0.48529  0.28692  1.0000
  O   O318      1.0  0.53595  0.48529  0.41809  1.0000
  O   O319      1.0  0.53334  0.54674  0.37437  1.0000
  O   O320      1.0  0.53334  0.48790  0.50553  1.0000
  O   O321      1.0  0.50392  0.48790  0.37437  1.0000
  O   O322      1.0  0.56276  0.54674  0.50553  1.0000
  O   O323      1.0  0.56276  0.51732  0.37437  1.0000
  O   O324      1.0  0.50392  0.51732  0.50553  1.0000
  Al  Al217     1.0  0.50131  0.54936  0.30386  1.0000
  Al  Al218     1.0  0.50131  0.54936  0.48859  1.0000
  Al  Al219     1.0  0.50131  0.54936  0.35743  1.0000
  Al  Al220     1.0  0.50131  0.54936  0.43502  1.0000
  Al  Al221     1.0  0.56537  0.58139  0.39130  1.0000
  Al  Al222     1.0  0.56537  0.58139  0.31371  1.0000
  Al  Al223     1.0  0.56537  0.58139  0.44487  1.0000
  Al  Al224     1.0  0.56537  0.58139  0.52247  1.0000
  Al  Al225     1.0  0.53334  0.61342  0.47875  1.0000
  Al  Al226     1.0  0.53334  0.61342  0.40115  1.0000
  Al  Al227     1.0  0.53334  0.61342  0.26999  1.0000
  Al  Al228     1.0  0.53334  0.61342  0.34758  1.0000
  O   O325      1.0  0.50131  0.57878  0.46181  1.0000
  O   O326      1.0  0.50131  0.61604  0.33064  1.0000
  O   O327      1.0  0.56799  0.61604  0.46181  1.0000
  O   O328      1.0  0.53073  0.57878  0.33064  1.0000
  O   O329      1.0  0.53073  0.54936  0.46181  1.0000
  O   O330      1.0  0.56799  0.54936  0.33064  1.0000
  O   O331      1.0  0.56537  0.61081  0.28692  1.0000
  O   O332      1.0  0.56537  0.55197  0.41809  1.0000
  O   O333      1.0  0.53595  0.55197  0.28692  1.0000
  O   O334      1.0  0.59479  0.61081  0.41809  1.0000
  O   O335      1.0  0.59479  0.58139  0.28692  1.0000
  O   O336      1.0  0.53595  0.58139  0.41809  1.0000
  O   O337      1.0  0.53334  0.64284  0.37437  1.0000
  O   O338      1.0  0.53334  0.58400  0.50553  1.0000
  O   O339      1.0  0.50392  0.58400  0.37437  1.0000
  O   O340      1.0  0.56276  0.64284  0.50553  1.0000
  O   O341      1.0  0.56276  0.61342  0.37437  1.0000
  O   O342      1.0  0.50392  0.61342  0.50553  1.0000
  Al  Al229     1.0  0.50131  0.64546  0.30386  1.0000
  Al  Al230     1.0  0.50131  0.64546  0.48859  1.0000
  Al  Al231     1.0  0.50131  0.64546  0.35743  1.0000
  Al  Al232     1.0  0.50131  0.64546  0.43502  1.0000
  Al  Al233     1.0  0.56537  0.67749  0.39130  1.0000
  Al  Al234     1.0  0.56537  0.67749  0.31371  1.0000
  Al  Al235     1.0  0.56537  0.67749  0.44487  1.0000
  Al  Al236     1.0  0.56537  0.67749  0.52247  1.0000
  Al  Al237     1.0  0.53334  0.70952  0.47875  1.0000
  Al  Al238     1.0  0.53334  0.70952  0.40115  1.0000
  Al  Al239     1.0  0.53334  0.70952  0.26999  1.0000
  Al  Al240     1.0  0.53334  0.70952  0.34758  1.0000
  O   O343      1.0  0.50131  0.67488  0.46181  1.0000
  O   O344      1.0  0.50131  0.71214  0.33064  1.0000
  O   O345      1.0  0.56799  0.71214  0.46181  1.0000
  O   O346      1.0  0.53073  0.67488  0.33064  1.0000
  O   O347      1.0  0.53073  0.64546  0.46181  1.0000
  O   O348      1.0  0.56799  0.64546  0.33064  1.0000
  O   O349      1.0  0.56537  0.70691  0.28692  1.0000
  O   O350      1.0  0.56537  0.64807  0.41809  1.0000
  O   O351      1.0  0.53595  0.64807  0.28692  1.0000
  O   O352      1.0  0.59479  0.70691  0.41809  1.0000
  O   O353      1.0  0.59479  0.67749  0.28692  1.0000
  O   O354      1.0  0.53595  0.67749  0.41809  1.0000
  O   O355      1.0  0.53334  0.73894  0.37437  1.0000
  O   O356      1.0  0.53334  0.68010  0.50553  1.0000
  O   O357      1.0  0.50392  0.68010  0.37437  1.0000
  O   O358      1.0  0.56276  0.73894  0.50553  1.0000
  O   O359      1.0  0.56276  0.70952  0.37437  1.0000
  O   O360      1.0  0.50392  0.70952  0.50553  1.0000
  Al  Al241     1.0  0.59741  0.26106  0.30386  1.0000
  Al  Al242     1.0  0.59741  0.26106  0.48859  1.0000
  Al  Al243     1.0  0.59741  0.26106  0.35743  1.0000
  Al  Al244     1.0  0.59741  0.26106  0.43502  1.0000
  Al  Al245     1.0  0.66147  0.29309  0.39130  1.0000
  Al  Al246     1.0  0.66147  0.29309  0.31371  1.0000
  Al  Al247     1.0  0.66147  0.29309  0.44487  1.0000
  Al  Al248     1.0  0.66147  0.29309  0.52247  1.0000
  Al  Al249     1.0  0.62944  0.32512  0.47875  1.0000
  Al  Al250     1.0  0.62944  0.32512  0.40115  1.0000
  Al  Al251     1.0  0.62944  0.32512  0.26999  1.0000
  Al  Al252     1.0  0.62944  0.32512  0.34758  1.0000
  O   O361      1.0  0.59741  0.29048  0.46181  1.0000
  O   O362      1.0  0.59741  0.32773  0.33064  1.0000
  O   O363      1.0  0.66409  0.32773  0.46181  1.0000
  O   O364      1.0  0.62683  0.29048  0.33064  1.0000
  O   O365      1.0  0.62683  0.26106  0.46181  1.0000
  O   O366      1.0  0.66409  0.26106  0.33064  1.0000
  O   O367      1.0  0.66147  0.32251  0.28692  1.0000
  O   O368      1.0  0.66147  0.26367  0.41809  1.0000
  O   O369      1.0  0.63205  0.26367  0.28692  1.0000
  O   O370      1.0  0.69089  0.32251  0.41809  1.0000
  O   O371      1.0  0.69089  0.29309  0.28692  1.0000
  O   O372      1.0  0.63205  0.29309  0.41809  1.0000
  O   O373      1.0  0.62944  0.35454  0.37437  1.0000
  O   O374      1.0  0.62944  0.29570  0.50553  1.0000
  O   O375      1.0  0.60002  0.29570  0.37437  1.0000
  O   O376      1.0  0.65886  0.35454  0.50553  1.0000
  O   O377      1.0  0.65886  0.32512  0.37437  1.0000
  O   O378      1.0  0.60002  0.32512  0.50553  1.0000
  Al  Al253     1.0  0.59741  0.35716  0.30386  1.0000
  Al  Al254     1.0  0.59741  0.35716  0.48859  1.0000
  Al  Al255     1.0  0.59741  0.35716  0.35743  1.0000
  Al  Al256     1.0  0.59741  0.35716  0.43502  1.0000
  Al  Al257     1.0  0.66147  0.38919  0.39130  1.0000
  Al  Al258     1.0  0.66147  0.38919  0.31371  1.0000
  Al  Al259     1.0  0.66147  0.38919  0.44487  1.0000
  Al  Al260     1.0  0.66147  0.38919  0.52247  1.0000
  Al  Al261     1.0  0.62944  0.42122  0.47875  1.0000
  Al  Al262     1.0  0.62944  0.42122  0.40115  1.0000
  Al  Al263     1.0  0.62944  0.42122  0.26999  1.0000
  Al  Al264     1.0  0.62944  0.42122  0.34758  1.0000
  O   O379      1.0  0.59741  0.38658  0.46181  1.0000
  O   O380      1.0  0.59741  0.42384  0.33064  1.0000
  O   O381      1.0  0.66409  0.42384  0.46181  1.0000
  O   O382      1.0  0.62683  0.38658  0.33064  1.0000
  O   O383      1.0  0.62683  0.35716  0.46181  1.0000
  O   O384      1.0  0.66409  0.35716  0.33064  1.0000
  O   O385      1.0  0.66147  0.41861  0.28692  1.0000
  O   O386      1.0  0.66147  0.35977  0.41809  1.0000
  O   O387      1.0  0.63205  0.35977  0.28692  1.0000
  O   O388      1.0  0.69089  0.41861  0.41809  1.0000
  O   O389      1.0  0.69089  0.38919  0.28692  1.0000
  O   O390      1.0  0.63205  0.38919  0.41809  1.0000
  O   O391      1.0  0.62944  0.45064  0.37437  1.0000
  O   O392      1.0  0.62944  0.39180  0.50553  1.0000
  O   O393      1.0  0.60002  0.39180  0.37437  1.0000
  O   O394      1.0  0.65886  0.45064  0.50553  1.0000
  O   O395      1.0  0.65886  0.42122  0.37437  1.0000
  O   O396      1.0  0.60002  0.42122  0.50553  1.0000
  Al  Al265     1.0  0.59741  0.45326  0.30386  1.0000
  Al  Al266     1.0  0.59741  0.45326  0.48859  1.0000
  Al  Al267     1.0  0.59741  0.45326  0.35743  1.0000
  Al  Al268     1.0  0.59741  0.45326  0.43502  1.0000
  Al  Al269     1.0  0.66147  0.48529  0.39130  1.0000
  Al  Al270     1.0  0.66147  0.48529  0.31371  1.0000
  Al  Al271     1.0  0.66147  0.48529  0.44487  1.0000
  Al  Al272     1.0  0.66147  0.48529  0.52247  1.0000
  Al  Al273     1.0  0.62944  0.51732  0.47875  1.0000
  Al  Al274     1.0  0.62944  0.51732  0.40115  1.0000
  Al  Al275     1.0  0.62944  0.51732  0.26999  1.0000
  Al  Al276     1.0  0.62944  0.51732  0.34758  1.0000
  O   O397      1.0  0.59741  0.48268  0.46181  1.0000
  O   O398      1.0  0.59741  0.51994  0.33064  1.0000
  O   O399      1.0  0.66409  0.51994  0.46181  1.0000
  O   O400      1.0  0.62683  0.48268  0.33064  1.0000
  O   O401      1.0  0.62683  0.45326  0.46181  1.0000
  O   O402      1.0  0.66409  0.45326  0.33064  1.0000
  O   O403      1.0  0.66147  0.51471  0.28692  1.0000
  O   O404      1.0  0.66147  0.45587  0.41809  1.0000
  O   O405      1.0  0.63205  0.45587  0.28692  1.0000
  O   O406      1.0  0.69089  0.51471  0.41809  1.0000
  O   O407      1.0  0.69089  0.48529  0.28692  1.0000
  O   O408      1.0  0.63205  0.48529  0.41809  1.0000
  O   O409      1.0  0.62944  0.54674  0.37437  1.0000
  O   O410      1.0  0.62944  0.48790  0.50553  1.0000
  O   O411      1.0  0.60002  0.48790  0.37437  1.0000
  O   O412      1.0  0.65886  0.54674  0.50553  1.0000
  O   O413      1.0  0.65886  0.51732  0.37437  1.0000
  O   O414      1.0  0.60002  0.51732  0.50553  1.0000
  Al  Al277     1.0  0.59741  0.54936  0.30386  1.0000
  Al  Al278     1.0  0.59741  0.54936  0.48859  1.0000
  Al  Al279     1.0  0.59741  0.54936  0.35743  1.0000
  Al  Al280     1.0  0.59741  0.54936  0.43502  1.0000
  Al  Al281     1.0  0.66147  0.58139  0.39130  1.0000
  Al  Al282     1.0  0.66147  0.58139  0.31371  1.0000
  Al  Al283     1.0  0.66147  0.58139  0.44487  1.0000
  Al  Al284     1.0  0.66147  0.58139  0.52247  1.0000
  Al  Al285     1.0  0.62944  0.61342  0.47875  1.0000
  Al  Al286     1.0  0.62944  0.61342  0.40115  1.0000
  Al  Al287     1.0  0.62944  0.61342  0.26999  1.0000
  Al  Al288     1.0  0.62944  0.61342  0.34758  1.0000
  O   O415      1.0  0.59741  0.57878  0.46181  1.0000
  O   O416      1.0  0.59741  0.61604  0.33064  1.0000
  O   O417      1.0  0.66409  0.61604  0.46181  1.0000
  O   O418      1.0  0.62683  0.57878  0.33064  1.0000
  O   O419      1.0  0.62683  0.54936  0.46181  1.0000
  O   O420      1.0  0.66409  0.54936  0.33064  1.0000
  O   O421      1.0  0.66147  0.61081  0.28692  1.0000
  O   O422      1.0  0.66147  0.55197  0.41809  1.0000
  O   O423      1.0  0.63205  0.55197  0.28692  1.0000
  O   O424      1.0  0.69089  0.61081  0.41809  1.0000
  O   O425      1.0  0.69089  0.58139  0.28692  1.0000
  O   O426      1.0  0.63205  0.58139  0.41809  1.0000
  O   O427      1.0  0.62944  0.64284  0.37437  1.0000
  O   O428      1.0  0.62944  0.58400  0.50553  1.0000
  O   O429      1.0  0.60002  0.58400  0.37437  1.0000
  O   O430      1.0  0.65886  0.64284  0.50553  1.0000
  O   O431      1.0  0.65886  0.61342  0.37437  1.0000
  O   O432      1.0  0.60002  0.61342  0.50553  1.0000
  Al  Al289     1.0  0.59741  0.64546  0.30386  1.0000
  Al  Al290     1.0  0.59741  0.64546  0.48859  1.0000
  Al  Al291     1.0  0.59741  0.64546  0.35743  1.0000
  Al  Al292     1.0  0.59741  0.64546  0.43502  1.0000
  Al  Al293     1.0  0.66147  0.67749  0.39130  1.0000
  Al  Al294     1.0  0.66147  0.67749  0.31371  1.0000
  Al  Al295     1.0  0.66147  0.67749  0.44487  1.0000
  Al  Al296     1.0  0.66147  0.67749  0.52247  1.0000
  Al  Al297     1.0  0.62944  0.70952  0.47875  1.0000
  Al  Al298     1.0  0.62944  0.70952  0.40115  1.0000
  Al  Al299     1.0  0.62944  0.70952  0.26999  1.0000
  Al  Al300     1.0  0.62944  0.70952  0.34758  1.0000
  O   O433      1.0  0.59741  0.67488  0.46181  1.0000
  O   O434      1.0  0.59741  0.71214  0.33064  1.0000
  O   O435      1.0  0.66409  0.71214  0.46181  1.0000
  O   O436      1.0  0.62683  0.67488  0.33064  1.0000
  O   O437      1.0  0.62683  0.64546  0.46181  1.0000
  O   O438      1.0  0.66409  0.64546  0.33064  1.0000
  O   O439      1.0  0.66147  0.70691  0.28692  1.0000
  O   O440      1.0  0.66147  0.64807  0.41809  1.0000
  O   O441      1.0  0.63205  0.64807  0.28692  1.0000
  O   O442      1.0  0.69089  0.70691  0.41809  1.0000
  O   O443      1.0  0.69089  0.67749  0.28692  1.0000
  O   O444      1.0  0.63205  0.67749  0.41809  1.0000
  O   O445      1.0  0.62944  0.73894  0.37437  1.0000
  O   O446      1.0  0.62944  0.68010  0.50553  1.0000
  O   O447      1.0  0.60002  0.68010  0.37437  1.0000
  O   O448      1.0  0.65886  0.73894  0.50553  1.0000
  O   O449      1.0  0.65886  0.70952  0.37437  1.0000
  O   O450      1.0  0.60002  0.70952  0.50553  1.0000
  Al  Al301     1.0  0.69351  0.26106  0.30386  1.0000
  Al  Al302     1.0  0.69351  0.26106  0.48859  1.0000
  Al  Al303     1.0  0.69351  0.26106  0.35743  1.0000
  Al  Al304     1.0  0.69351  0.26106  0.43502  1.0000
  Al  Al305     1.0  0.75757  0.29309  0.39130  1.0000
  Al  Al306     1.0  0.75757  0.29309  0.31371  1.0000
  Al  Al307     1.0  0.75757  0.29309  0.44487  1.0000
  Al  Al308     1.0  0.75757  0.29309  0.52247  1.0000
  Al  Al309     1.0  0.72554  0.32512  0.47875  1.0000
  Al  Al310     1.0  0.72554  0.32512  0.40115  1.0000
  Al  Al311     1.0  0.72554  0.32512  0.26999  1.0000
  Al  Al312     1.0  0.72554  0.32512  0.34758  1.0000
  O   O451      1.0  0.69351  0.29048  0.46181  1.0000
  O   O452      1.0  0.69351  0.32773  0.33064  1.0000
  O   O453      1.0  0.76019  0.32773  0.46181  1.0000
  O   O454      1.0  0.72293  0.29048  0.33064  1.0000
  O   O455      1.0  0.72293  0.26106  0.46181  1.0000
  O   O456      1.0  0.76019  0.26106  0.33064  1.0000
  O   O457      1.0  0.75757  0.32251  0.28692  1.0000
  O   O458      1.0  0.75757  0.26367  0.41809  1.0000
  O   O459      1.0  0.72815  0.26367  0.28692  1.0000
  O   O460      1.0  0.78700  0.32251  0.41809  1.0000
  O   O461      1.0  0.78700  0.29309  0.28692  1.0000
  O   O462      1.0  0.72815  0.29309  0.41809  1.0000
  O   O463      1.0  0.72554  0.35454  0.37437  1.0000
  O   O464      1.0  0.72554  0.29570  0.50553  1.0000
  O   O465      1.0  0.69612  0.29570  0.37437  1.0000
  O   O466      1.0  0.75496  0.35454  0.50553  1.0000
  O   O467      1.0  0.75496  0.32512  0.37437  1.0000
  O   O468      1.0  0.69612  0.32512  0.50553  1.0000
  Al  Al313     1.0  0.69351  0.35716  0.30386  1.0000
  Al  Al314     1.0  0.69351  0.35716  0.48859  1.0000
  Al  Al315     1.0  0.69351  0.35716  0.35743  1.0000
  Al  Al316     1.0  0.69351  0.35716  0.43502  1.0000
  Al  Al317     1.0  0.75757  0.38919  0.39130  1.0000
  Al  Al318     1.0  0.75757  0.38919  0.31371  1.0000
  Al  Al319     1.0  0.75757  0.38919  0.44487  1.0000
  Al  Al320     1.0  0.75757  0.38919  0.52247  1.0000
  Al  Al321     1.0  0.72554  0.42122  0.47875  1.0000
  Al  Al322     1.0  0.72554  0.42122  0.40115  1.0000
  Al  Al323     1.0  0.72554  0.42122  0.26999  1.0000
  Al  Al324     1.0  0.72554  0.42122  0.34758  1.0000
  O   O469      1.0  0.69351  0.38658  0.46181  1.0000
  O   O470      1.0  0.69351  0.42384  0.33064  1.0000
  O   O471      1.0  0.76019  0.42384  0.46181  1.0000
  O   O472      1.0  0.72293  0.38658  0.33064  1.0000
  O   O473      1.0  0.72293  0.35716  0.46181  1.0000
  O   O474      1.0  0.76019  0.35716  0.33064  1.0000
  O   O475      1.0  0.75757  0.41861  0.28692  1.0000
  O   O476      1.0  0.75757  0.35977  0.41809  1.0000
  O   O477      1.0  0.72815  0.35977  0.28692  1.0000
  O   O478      1.0  0.78700  0.41861  0.41809  1.0000
  O   O479      1.0  0.78700  0.38919  0.28692  1.0000
  O   O480      1.0  0.72815  0.38919  0.41809  1.0000
  O   O481      1.0  0.72554  0.45064  0.37437  1.0000
  O   O482      1.0  0.72554  0.39180  0.50553  1.0000
  O   O483      1.0  0.69612  0.39180  0.37437  1.0000
  O   O484      1.0  0.75496  0.45064  0.50553  1.0000
  O   O485      1.0  0.75496  0.42122  0.37437  1.0000
  O   O486      1.0  0.69612  0.42122  0.50553  1.0000
  Al  Al325     1.0  0.69351  0.45326  0.30386  1.0000
  Al  Al326     1.0  0.69351  0.45326  0.48859  1.0000
  Al  Al327     1.0  0.69351  0.45326  0.35743  1.0000
  Al  Al328     1.0  0.69351  0.45326  0.43502  1.0000
  Al  Al329     1.0  0.75757  0.48529  0.39130  1.0000
  Al  Al330     1.0  0.75757  0.48529  0.31371  1.0000
  Al  Al331     1.0  0.75757  0.48529  0.44487  1.0000
  Al  Al332     1.0  0.75757  0.48529  0.52247  1.0000
  Al  Al333     1.0  0.72554  0.51732  0.47875  1.0000
  Al  Al334     1.0  0.72554  0.51732  0.40115  1.0000
  Al  Al335     1.0  0.72554  0.51732  0.26999  1.0000
  Al  Al336     1.0  0.72554  0.51732  0.34758  1.0000
  O   O487      1.0  0.69351  0.48268  0.46181  1.0000
  O   O488      1.0  0.69351  0.51994  0.33064  1.0000
  O   O489      1.0  0.76019  0.51994  0.46181  1.0000
  O   O490      1.0  0.72293  0.48268  0.33064  1.0000
  O   O491      1.0  0.72293  0.45326  0.46181  1.0000
  O   O492      1.0  0.76019  0.45326  0.33064  1.0000
  O   O493      1.0  0.75757  0.51471  0.28692  1.0000
  O   O494      1.0  0.75757  0.45587  0.41809  1.0000
  O   O495      1.0  0.72815  0.45587  0.28692  1.0000
  O   O496      1.0  0.78700  0.51471  0.41809  1.0000
  O   O497      1.0  0.78700  0.48529  0.28692  1.0000
  O   O498      1.0  0.72815  0.48529  0.41809  1.0000
  O   O499      1.0  0.72554  0.54674  0.37437  1.0000
  O   O500      1.0  0.72554  0.48790  0.50553  1.0000
  O   O501      1.0  0.69612  0.48790  0.37437  1.0000
  O   O502      1.0  0.75496  0.54674  0.50553  1.0000
  O   O503      1.0  0.75496  0.51732  0.37437  1.0000
  O   O504      1.0  0.69612  0.51732  0.50553  1.0000
  Al  Al337     1.0  0.69351  0.54936  0.30386  1.0000
  Al  Al338     1.0  0.69351  0.54936  0.48859  1.0000
  Al  Al339     1.0  0.69351  0.54936  0.35743  1.0000
  Al  Al340     1.0  0.69351  0.54936  0.43502  1.0000
  Al  Al341     1.0  0.75757  0.58139  0.39130  1.0000
  Al  Al342     1.0  0.75757  0.58139  0.31371  1.0000
  Al  Al343     1.0  0.75757  0.58139  0.44487  1.0000
  Al  Al344     1.0  0.75757  0.58139  0.52247  1.0000
  Al  Al345     1.0  0.72554  0.61342  0.47875  1.0000
  Al  Al346     1.0  0.72554  0.61342  0.40115  1.0000
  Al  Al347     1.0  0.72554  0.61342  0.26999  1.0000
  Al  Al348     1.0  0.72554  0.61342  0.34758  1.0000
  O   O505      1.0  0.69351  0.57878  0.46181  1.0000
  O   O506      1.0  0.69351  0.61604  0.33064  1.0000
  O   O507      1.0  0.76019  0.61604  0.46181  1.0000
  O   O508      1.0  0.72293  0.57878  0.33064  1.0000
  O   O509      1.0  0.72293  0.54936  0.46181  1.0000
  O   O510      1.0  0.76019  0.54936  0.33064  1.0000
  O   O511      1.0  0.75757  0.61081  0.28692  1.0000
  O   O512      1.0  0.75757  0.55197  0.41809  1.0000
  O   O513      1.0  0.72815  0.55197  0.28692  1.0000
  O   O514      1.0  0.78700  0.61081  0.41809  1.0000
  O   O515      1.0  0.78700  0.58139  0.28692  1.0000
  O   O516      1.0  0.72815  0.58139  0.41809  1.0000
  O   O517      1.0  0.72554  0.64284  0.37437  1.0000
  O   O518      1.0  0.72554  0.58400  0.50553  1.0000
  O   O519      1.0  0.69612  0.58400  0.37437  1.0000
  O   O520      1.0  0.75496  0.64284  0.50553  1.0000
  O   O521      1.0  0.75496  0.61342  0.37437  1.0000
  O   O522      1.0  0.69612  0.61342  0.50553  1.0000
  Al  Al349     1.0  0.69351  0.64546  0.30386  1.0000
  Al  Al350     1.0  0.69351  0.64546  0.48859  1.0000
  Al  Al351     1.0  0.69351  0.64546  0.35743  1.0000
  Al  Al352     1.0  0.69351  0.64546  0.43502  1.0000
  Al  Al353     1.0  0.75757  0.67749  0.39130  1.0000
  Al  Al354     1.0  0.75757  0.67749  0.31371  1.0000
  Al  Al355     1.0  0.75757  0.67749  0.44487  1.0000
  Al  Al356     1.0  0.75757  0.67749  0.52247  1.0000
  Al  Al357     1.0  0.72554  0.70952  0.47875  1.0000
  Al  Al358     1.0  0.72554  0.70952  0.40115  1.0000
  Al  Al359     1.0  0.72554  0.70952  0.26999  1.0000
  Al  Al360     1.0  0.72554  0.70952  0.34758  1.0000
  O   O523      1.0  0.69351  0.67488  0.46181  1.0000
  O   O524      1.0  0.69351  0.71214  0.33064  1.0000
  O   O525      1.0  0.76019  0.71214  0.46181  1.0000
  O   O526      1.0  0.72293  0.67488  0.33064  1.0000
  O   O527      1.0  0.72293  0.64546  0.46181  1.0000
  O   O528      1.0  0.76019  0.64546  0.33064  1.0000
  O   O529      1.0  0.75757  0.70691  0.28692  1.0000
  O   O530      1.0  0.75757  0.64807  0.41809  1.0000
  O   O531      1.0  0.72815  0.64807  0.28692  1.0000
  O   O532      1.0  0.78700  0.70691  0.41809  1.0000
  O   O533      1.0  0.78700  0.67749  0.28692  1.0000
  O   O534      1.0  0.72815  0.67749  0.41809  1.0000
  O   O535      1.0  0.72554  0.73894  0.37437  1.0000
  O   O536      1.0  0.72554  0.68010  0.50553  1.0000
  O   O537      1.0  0.69612  0.68010  0.37437  1.0000
  O   O538      1.0  0.75496  0.73894  0.50553  1.0000
  O   O539      1.0  0.75496  0.70952  0.37437  1.0000
  O   O540      1.0  0.69612  0.70952  0.50553  1.0000
  Pd  Pd1       1.0  0.41751  0.30420  0.68987  1.0000
  Pd  Pd2       1.0  0.43985  0.34945  0.72908  1.0000
  Pd  Pd3       1.0  0.47935  0.34945  0.69018  1.0000
  Pd  Pd4       1.0  0.37801  0.30420  0.72877  1.0000
  Pd  Pd5       1.0  0.33913  0.30423  0.68927  1.0000
  Pd  Pd6       1.0  0.36147  0.34948  0.72849  1.0000
  Pd  Pd7       1.0  0.40096  0.34948  0.68959  1.0000
  Pd  Pd8       1.0  0.32258  0.34951  0.68899  1.0000
  Pd  Pd9       1.0  0.49650  0.30420  0.61207  1.0000
  Pd  Pd10      1.0  0.51884  0.34945  0.65128  1.0000
  Pd  Pd11      1.0  0.55834  0.34945  0.61238  1.0000
  Pd  Pd12      1.0  0.45701  0.30420  0.65097  1.0000
  Pd  Pd13      1.0  0.41812  0.30423  0.61147  1.0000
  Pd  Pd14      1.0  0.44046  0.34948  0.65068  1.0000
  Pd  Pd15      1.0  0.47996  0.34948  0.61178  1.0000
  Pd  Pd16      1.0  0.37862  0.30423  0.65037  1.0000
  Pd  Pd17      1.0  0.33974  0.30426  0.61088  1.0000
  Pd  Pd18      1.0  0.36208  0.34951  0.65009  1.0000
  Pd  Pd19      1.0  0.40157  0.34951  0.61119  1.0000
  Pd  Pd20      1.0  0.30024  0.30426  0.64978  1.0000
  Pd  Pd21      1.0  0.26135  0.30429  0.61028  1.0000
  Pd  Pd22      1.0  0.28369  0.34954  0.64949  1.0000
  Pd  Pd23      1.0  0.32319  0.34954  0.61059  1.0000
  Pd  Pd24      1.0  0.24481  0.34957  0.61000  1.0000
  Pd  Pd25      1.0  0.53600  0.30420  0.57317  1.0000
  Pd  Pd26      1.0  0.51945  0.34948  0.57288  1.0000
  Pd  Pd27      1.0  0.45762  0.30423  0.57257  1.0000
  Pd  Pd28      1.0  0.44107  0.34951  0.57229  1.0000
  Pd  Pd29      1.0  0.37923  0.30426  0.57198  1.0000
  Pd  Pd30      1.0  0.36269  0.34954  0.57169  1.0000
  Pd  Pd31      1.0  0.30085  0.30429  0.57138  1.0000
  Pd  Pd32      1.0  0.28430  0.34957  0.57110  1.0000
  Pd  Pd33      1.0  0.22247  0.30432  0.57079  1.0000
  Pd  Pd34      1.0  0.54118  0.39470  0.69049  1.0000
  Pd  Pd35      1.0  0.56352  0.43995  0.72970  1.0000
  Pd  Pd36      1.0  0.60302  0.43995  0.69080  1.0000
  Pd  Pd37      1.0  0.50169  0.39470  0.72939  1.0000
  Pd  Pd38      1.0  0.46280  0.39473  0.68990  1.0000
  Pd  Pd39      1.0  0.48514  0.43998  0.72911  1.0000
  Pd  Pd40      1.0  0.52464  0.43998  0.69021  1.0000
  Pd  Pd41      1.0  0.42330  0.39473  0.72880  1.0000
  Pd  Pd42      1.0  0.38442  0.39476  0.68930  1.0000
  Pd  Pd43      1.0  0.40676  0.44001  0.72851  1.0000
  Pd  Pd44      1.0  0.44625  0.44001  0.68961  1.0000
  Pd  Pd45      1.0  0.34492  0.39476  0.72820  1.0000
  Pd  Pd46      1.0  0.30603  0.39479  0.68871  1.0000
  Pd  Pd47      1.0  0.32837  0.44004  0.72792  1.0000
  Pd  Pd48      1.0  0.36787  0.44004  0.68902  1.0000
  Pd  Pd49      1.0  0.28949  0.44007  0.68842  1.0000
  Pd  Pd50      1.0  0.58068  0.39470  0.65159  1.0000
  Pd  Pd51      1.0  0.54179  0.39473  0.61209  1.0000
  Pd  Pd52      1.0  0.56413  0.43998  0.65131  1.0000
  Pd  Pd53      1.0  0.60363  0.43998  0.61241  1.0000
  Pd  Pd54      1.0  0.50230  0.39473  0.65100  1.0000
  Pd  Pd55      1.0  0.46341  0.39476  0.61150  1.0000
  Pd  Pd56      1.0  0.48575  0.44001  0.65071  1.0000
  Pd  Pd57      1.0  0.52525  0.44001  0.61181  1.0000
  Pd  Pd58      1.0  0.42391  0.39476  0.65040  1.0000
  Pd  Pd59      1.0  0.38503  0.39479  0.61090  1.0000
  Pd  Pd60      1.0  0.40737  0.44004  0.65012  1.0000
  Pd  Pd61      1.0  0.44686  0.44004  0.61121  1.0000
  Pd  Pd62      1.0  0.34553  0.39479  0.64980  1.0000
  Pd  Pd63      1.0  0.30664  0.39482  0.61031  1.0000
  Pd  Pd64      1.0  0.32898  0.44007  0.64952  1.0000
  Pd  Pd65      1.0  0.36848  0.44007  0.61062  1.0000
  Pd  Pd66      1.0  0.26715  0.39482  0.64921  1.0000
  Pd  Pd67      1.0  0.29010  0.44010  0.61002  1.0000
  Pd  Pd68      1.0  0.58129  0.39473  0.57319  1.0000
  Pd  Pd69      1.0  0.56474  0.44001  0.57291  1.0000
  Pd  Pd70      1.0  0.50291  0.39476  0.57260  1.0000
  Pd  Pd71      1.0  0.48636  0.44004  0.57231  1.0000
  Pd  Pd72      1.0  0.42452  0.39479  0.57200  1.0000
  Pd  Pd73      1.0  0.40798  0.44007  0.57172  1.0000
  Pd  Pd74      1.0  0.34614  0.39482  0.57141  1.0000
  Pd  Pd75      1.0  0.32959  0.44010  0.57112  1.0000
  Pd  Pd76      1.0  0.26776  0.39485  0.57081  1.0000
  Pd  Pd77      1.0  0.62536  0.48520  0.73001  1.0000
  Pd  Pd78      1.0  0.58647  0.48523  0.69052  1.0000
  Pd  Pd79      1.0  0.60881  0.53048  0.72973  1.0000
  Pd  Pd80      1.0  0.64831  0.53048  0.69083  1.0000
  Pd  Pd81      1.0  0.54698  0.48523  0.72942  1.0000
  Pd  Pd82      1.0  0.50809  0.48526  0.68992  1.0000
  Pd  Pd83      1.0  0.53043  0.53051  0.72913  1.0000
  Pd  Pd84      1.0  0.56993  0.53051  0.69023  1.0000
  Pd  Pd85      1.0  0.46859  0.48526  0.72882  1.0000
  Pd  Pd86      1.0  0.42971  0.48529  0.68933  1.0000
  Pd  Pd87      1.0  0.45205  0.53054  0.72854  1.0000
  Pd  Pd88      1.0  0.49154  0.53054  0.68964  1.0000
  Pd  Pd89      1.0  0.39021  0.48529  0.72823  1.0000
  Pd  Pd90      1.0  0.35132  0.48532  0.68873  1.0000
  Pd  Pd91      1.0  0.37366  0.53057  0.72794  1.0000
  Pd  Pd92      1.0  0.41316  0.53057  0.68904  1.0000
  Pd  Pd93      1.0  0.31183  0.48532  0.72763  1.0000
  Pd  Pd94      1.0  0.33478  0.53060  0.68845  1.0000
  Pd  Pd95      1.0  0.62597  0.48523  0.65162  1.0000
  Pd  Pd96      1.0  0.58708  0.48526  0.61212  1.0000
  Pd  Pd97      1.0  0.60942  0.53051  0.65133  1.0000
  Pd  Pd98      1.0  0.64892  0.53051  0.61243  1.0000
  Pd  Pd99      1.0  0.54759  0.48526  0.65102  1.0000
  Pd  Pd100     1.0  0.50870  0.48529  0.61152  1.0000
  Pd  Pd101     1.0  0.53104  0.53054  0.65074  1.0000
  Pd  Pd102     1.0  0.57054  0.53054  0.61184  1.0000
  Pd  Pd103     1.0  0.46920  0.48529  0.65043  1.0000
  Pd  Pd104     1.0  0.43032  0.48532  0.61093  1.0000
  Pd  Pd105     1.0  0.45266  0.53057  0.65014  1.0000
  Pd  Pd106     1.0  0.49215  0.53057  0.61124  1.0000
  Pd  Pd107     1.0  0.39082  0.48532  0.64983  1.0000
  Pd  Pd108     1.0  0.35193  0.48535  0.61033  1.0000
  Pd  Pd109     1.0  0.37427  0.53060  0.64955  1.0000
  Pd  Pd110     1.0  0.41377  0.53060  0.61064  1.0000
  Pd  Pd111     1.0  0.31244  0.48535  0.64924  1.0000
  Pd  Pd112     1.0  0.33539  0.53063  0.61005  1.0000
  Pd  Pd113     1.0  0.62658  0.48526  0.57322  1.0000
  Pd  Pd114     1.0  0.61003  0.53054  0.57293  1.0000
  Pd  Pd115     1.0  0.54820  0.48529  0.57262  1.0000
  Pd  Pd116     1.0  0.53165  0.53057  0.57234  1.0000
  Pd  Pd117     1.0  0.46981  0.48532  0.57203  1.0000
  Pd  Pd118     1.0  0.45327  0.53060  0.57174  1.0000
  Pd  Pd119     1.0  0.39143  0.48535  0.57143  1.0000
  Pd  Pd120     1.0  0.37488  0.53063  0.57115  1.0000
  Pd  Pd121     1.0  0.31305  0.48538  0.57084  1.0000
  Pd  Pd122     1.0  0.63176  0.57575  0.69054  1.0000
  Pd  Pd123     1.0  0.59227  0.57575  0.72945  1.0000
  Pd  Pd124     1.0  0.55338  0.57578  0.68995  1.0000
  Pd  Pd125     1.0  0.57572  0.62103  0.72916  1.0000
  Pd  Pd126     1.0  0.61522  0.62103  0.69026  1.0000
  Pd  Pd127     1.0  0.51388  0.57578  0.72885  1.0000
  Pd  Pd128     1.0  0.47500  0.57581  0.68935  1.0000
  Pd  Pd129     1.0  0.49734  0.62106  0.72857  1.0000
  Pd  Pd130     1.0  0.53683  0.62106  0.68966  1.0000
  Pd  Pd131     1.0  0.43550  0.57581  0.72825  1.0000
  Pd  Pd132     1.0  0.39661  0.57584  0.68876  1.0000
  Pd  Pd133     1.0  0.45845  0.62109  0.68907  1.0000
  Pd  Pd134     1.0  0.67126  0.57575  0.65164  1.0000
  Pd  Pd135     1.0  0.63237  0.57578  0.61215  1.0000
  Pd  Pd136     1.0  0.65471  0.62103  0.65136  1.0000
  Pd  Pd137     1.0  0.69421  0.62103  0.61246  1.0000
  Pd  Pd138     1.0  0.59288  0.57578  0.65105  1.0000
  Pd  Pd139     1.0  0.55399  0.57581  0.61155  1.0000
  Pd  Pd140     1.0  0.57633  0.62106  0.65076  1.0000
  Pd  Pd141     1.0  0.61583  0.62106  0.61186  1.0000
  Pd  Pd142     1.0  0.51449  0.57581  0.65045  1.0000
  Pd  Pd143     1.0  0.47561  0.57584  0.61096  1.0000
  Pd  Pd144     1.0  0.49795  0.62109  0.65017  1.0000
  Pd  Pd145     1.0  0.53744  0.62109  0.61127  1.0000
  Pd  Pd146     1.0  0.43611  0.57584  0.64986  1.0000
  Pd  Pd147     1.0  0.39722  0.57587  0.61036  1.0000
  Pd  Pd148     1.0  0.41956  0.62112  0.64957  1.0000
  Pd  Pd149     1.0  0.45906  0.62112  0.61067  1.0000
  Pd  Pd150     1.0  0.35773  0.57587  0.64926  1.0000
  Pd  Pd151     1.0  0.38068  0.62115  0.61008  1.0000
  Pd  Pd152     1.0  0.67187  0.57578  0.57325  1.0000
  Pd  Pd153     1.0  0.65532  0.62106  0.57296  1.0000
  Pd  Pd154     1.0  0.59349  0.57581  0.57265  1.0000
  Pd  Pd155     1.0  0.57694  0.62109  0.57237  1.0000
  Pd  Pd156     1.0  0.51510  0.57584  0.57205  1.0000
  Pd  Pd157     1.0  0.49856  0.62112  0.57177  1.0000
  Pd  Pd158     1.0  0.43672  0.57587  0.57146  1.0000
  Pd  Pd159     1.0  0.42017  0.62115  0.57117  1.0000
  Pd  Pd160     1.0  0.35834  0.57590  0.57086  1.0000
  Pd  Pd161     1.0  0.59867  0.66631  0.68997  1.0000
  Pd  Pd162     1.0  0.55917  0.66631  0.72888  1.0000
  Pd  Pd163     1.0  0.52029  0.66634  0.68938  1.0000
  Pd  Pd164     1.0  0.67766  0.66631  0.61217  1.0000
  Pd  Pd165     1.0  0.63817  0.66631  0.65107  1.0000
  Pd  Pd166     1.0  0.59928  0.66634  0.61158  1.0000
  Pd  Pd167     1.0  0.55978  0.66634  0.65048  1.0000
  Pd  Pd168     1.0  0.52090  0.66637  0.61098  1.0000
  Pd  Pd169     1.0  0.48140  0.66637  0.64988  1.0000
  Pd  Pd170     1.0  0.44251  0.66640  0.61039  1.0000
  Pd  Pd171     1.0  0.71716  0.66631  0.57327  1.0000
  Pd  Pd172     1.0  0.63878  0.66634  0.57268  1.0000
  Pd  Pd173     1.0  0.56039  0.66637  0.57208  1.0000
  Pd  Pd174     1.0  0.48201  0.66640  0.57149  1.0000
  Pd  Pd175     1.0  0.40363  0.66643  0.57089  1.0000
